
     RDKit          3D

  0  0  0  0  0  0  0  0  0  0999 V3000
M  V30 BEGIN CTAB
M  V30 COUNTS 172 192 0 0 0
M  V30 BEGIN ATOM
M  V30 1 Cu -0.4498 7.6452 0.8330 0 CHG=2
M  V30 2 Cu -0.2069 5.2316 0.9301 0 CHG=2
M  V30 3 C 2.0403 6.4696 1.0439 0
M  V30 4 O 1.4098 7.6615 1.0697 0
M  V30 5 O 1.3980 5.4317 1.0721 0
M  V30 6 C -0.2101 6.4599 3.1986 0
M  V30 7 O -0.2309 7.6478 2.5606 0
M  V30 8 O -0.2426 5.4180 2.5630 0
M  V30 9 C -2.4119 6.4701 1.2310 0
M  V30 10 O -1.7689 7.6552 1.2026 0
M  V30 11 O -1.7807 5.4254 1.2051 0
M  V30 12 C -0.4072 6.4607 -1.2979 0
M  V30 13 O -0.3739 7.6497 -0.6624 0
M  V30 14 O -0.3857 5.4199 -0.6600 0
M  V30 15 Cu -0.3918 -6.8338 1.1962 0 CHG=2
M  V30 16 Cu -0.1489 -4.4202 1.0991 0 CHG=2
M  V30 17 C 2.0982 -5.6582 0.9853 0
M  V30 18 O 1.4677 -6.8500 0.9595 0
M  V30 19 O 1.4560 -4.6202 0.9571 0
M  V30 20 C -0.1521 -5.6484 -1.1695 0
M  V30 21 O -0.1729 -6.8363 -0.5314 0
M  V30 22 O -0.1846 -4.6065 -0.5338 0
M  V30 23 C -2.3540 -5.6587 0.7982 0
M  V30 24 O -1.7109 -6.8437 0.8265 0
M  V30 25 O -1.7227 -4.6139 0.8241 0
M  V30 26 C -0.3492 -5.6492 3.3271 0
M  V30 27 O -0.3159 -6.8382 2.6916 0
M  V30 28 O -0.3277 -4.6084 2.6892 0
M  V30 29 C 5.5033 4.8240 1.1090 0
M  V30 30 C 6.3590 5.7437 1.6605 0
M  V30 31 C 5.9661 7.0590 1.7389 0
M  V30 32 C 4.6461 7.4119 1.3810 0
M  V30 33 C 3.8089 6.3612 0.9715 0
M  V30 34 C 4.2384 5.1089 0.7650 0
M  V30 35 C 6.0235 3.6029 0.8886 0
M  V30 36 C 6.7834 2.7394 0.8188 0
M  V30 37 C 7.6027 1.6679 0.7290 0
M  V30 38 C 8.9834 1.8097 0.6510 0
M  V30 39 C 9.7669 0.6586 0.6559 0
M  V30 40 N 11.1714 0.7459 0.5604 0
M  V30 41 H 11.6378 1.6601 0.4767 0
M  V30 42 H 11.7384 -0.1129 0.5494 0
M  V30 43 C 9.1456 -0.5926 0.7522 0
M  V30 44 C 7.7602 -0.6847 0.8292 0
M  V30 45 C 7.1343 -1.9411 0.8899 0
M  V30 46 C 6.5130 -2.9514 0.9348 0
M  V30 47 C 5.8462 -4.1929 0.9957 0
M  V30 48 C 6.5666 -5.3932 0.9830 0
M  V30 49 C 5.8761 -6.6046 0.9638 0
M  V30 50 C 4.4886 -6.6089 0.9542 0
M  V30 51 C 3.8089 -5.4175 0.9715 0
M  V30 52 C 4.4541 -4.1916 1.0036 0
M  V30 53 C 6.9822 0.4483 0.8152 0
M  V30 54 H 7.3502 5.4257 1.9793 0
M  V30 55 H 6.7019 7.7731 2.0817 0
M  V30 56 H 4.3669 8.4454 1.4857 0
M  V30 57 H 3.6279 4.2971 0.3111 0
M  V30 58 H 9.4370 2.7966 0.5930 0
M  V30 59 H 9.7283 -1.4939 0.7559 0
M  V30 60 H 7.6532 -5.3930 0.9721 0
M  V30 61 H 6.4205 -7.5384 0.9384 0
M  V30 62 H 3.9559 -7.5583 0.9172 0
M  V30 63 H 3.9294 -3.2454 1.0033 0
M  V30 64 H 5.8888 0.4019 0.8875 0
M  V30 65 C -0.6403 4.7993 6.6349 0
M  V30 66 C -1.1917 5.7190 7.4905 0
M  V30 67 C -1.2702 7.0343 7.0976 0
M  V30 68 C -0.9122 7.3872 5.7776 0
M  V30 69 C -0.5028 6.3365 4.9405 0
M  V30 70 C -0.2963 5.0842 5.3700 0
M  V30 71 C -0.4198 3.5782 7.1551 0
M  V30 72 C -0.3500 2.7147 7.9149 0
M  V30 73 C -0.2603 1.6432 8.7343 0
M  V30 74 C -0.1823 1.7850 10.1149 0
M  V30 75 C -0.1872 0.6339 10.8985 0
M  V30 76 N -0.0917 0.7212 12.3029 0
M  V30 77 H -0.0079 1.6354 12.7693 0
M  V30 78 H -0.0806 -0.1376 12.8699 0
M  V30 79 C -0.2835 -0.6173 10.2772 0
M  V30 80 C -0.3605 -0.7094 8.8917 0
M  V30 81 C -0.4212 -1.9658 8.2658 0
M  V30 82 C -0.4661 -2.9761 7.6446 0
M  V30 83 C -0.5269 -4.2176 6.9777 0
M  V30 84 C -0.5142 -5.4179 7.6982 0
M  V30 85 C -0.4950 -6.6293 7.0077 0
M  V30 86 C -0.4855 -6.6336 5.6202 0
M  V30 87 C -0.5028 -5.4422 4.9405 0
M  V30 88 C -0.5349 -4.2164 5.5856 0
M  V30 89 C -0.3464 0.4236 8.1137 0
M  V30 90 H -1.5106 5.4010 8.4817 0
M  V30 91 H -1.6129 7.7484 7.8334 0
M  V30 92 H -1.0170 8.4207 5.4984 0
M  V30 93 H 0.1576 4.2724 4.7595 0
M  V30 94 H -0.1243 2.7719 10.5686 0
M  V30 95 H -0.2871 -1.5186 10.8599 0
M  V30 96 H -0.5034 -5.4177 8.7848 0
M  V30 97 H -0.4696 -7.5631 7.5520 0
M  V30 98 H -0.4485 -7.5830 5.0874 0
M  V30 99 H -0.5345 -3.2701 5.0609 0
M  V30 100 H -0.4187 0.3772 7.0203 0
M  V30 101 C -5.8739 4.8258 0.8274 0
M  V30 102 C -6.7296 5.7455 0.2759 0
M  V30 103 C -6.3367 7.0608 0.1974 0
M  V30 104 C -5.0167 7.4137 0.5554 0
M  V30 105 C -4.1795 6.3630 0.9649 0
M  V30 106 C -4.6090 5.1107 1.1713 0
M  V30 107 C -6.3941 3.6047 1.0478 0
M  V30 108 C -7.1540 2.7412 1.1176 0
M  V30 109 C -7.9733 1.6697 1.2073 0
M  V30 110 C -9.3540 1.8115 1.2854 0
M  V30 111 C -10.1375 0.6604 1.2804 0
M  V30 112 N -11.5420 0.7477 1.3760 0
M  V30 113 H -12.0084 1.6619 1.4597 0
M  V30 114 H -12.1090 -0.1111 1.3870 0
M  V30 115 C -9.5162 -0.5908 1.1842 0
M  V30 116 C -8.1308 -0.6829 1.1071 0
M  V30 117 C -7.5049 -1.9393 1.0465 0
M  V30 118 C -6.8836 -2.9496 1.0015 0
M  V30 119 C -6.2168 -4.1911 0.9407 0
M  V30 120 C -6.9372 -5.3914 0.9534 0
M  V30 121 C -6.2467 -6.6028 0.9726 0
M  V30 122 C -4.8592 -6.6071 0.9821 0
M  V30 123 C -4.1795 -5.4157 0.9649 0
M  V30 124 C -4.8246 -4.1899 0.9328 0
M  V30 125 C -7.3528 0.4501 1.1212 0
M  V30 126 H -7.7207 5.4275 -0.0429 0
M  V30 127 H -7.0725 7.7749 -0.1453 0
M  V30 128 H -4.7375 8.4472 0.4507 0
M  V30 129 H -3.9985 4.2989 1.6253 0
M  V30 130 H -9.8076 2.7984 1.3434 0
M  V30 131 H -10.0989 -1.4921 1.1805 0
M  V30 132 H -8.0238 -5.3912 0.9642 0
M  V30 133 H -6.7911 -7.5366 0.9980 0
M  V30 134 H -4.3265 -7.5565 1.0191 0
M  V30 135 H -4.2999 -3.2436 0.9331 0
M  V30 136 H -6.2594 0.4037 1.0489 0
M  V30 137 C 0.0981 4.6382 -4.6303 0
M  V30 138 C 0.6496 5.5579 -5.4860 0
M  V30 139 C 0.7280 6.8732 -5.0930 0
M  V30 140 C 0.3701 7.2262 -3.7730 0
M  V30 141 C -0.0394 6.1754 -2.9359 0
M  V30 142 C -0.2458 4.9231 -3.3654 0
M  V30 143 C -0.1223 3.4171 -5.1505 0
M  V30 144 C -0.1921 2.5536 -5.9103 0
M  V30 145 C -0.2819 1.4821 -6.7297 0
M  V30 146 C -0.3599 1.6239 -8.1103 0
M  V30 147 C -0.3549 0.4728 -8.8939 0
M  V30 148 N -0.4505 0.5601 -10.2983 0
M  V30 149 H -0.5342 1.4743 -10.7647 0
M  V30 150 H -0.4615 -0.2987 -10.8654 0
M  V30 151 C -0.2587 -0.7784 -8.2726 0
M  V30 152 C -0.1816 -0.8705 -6.8872 0
M  V30 153 C -0.1210 -2.1269 -6.2612 0
M  V30 154 C -0.0761 -3.1372 -5.6400 0
M  V30 155 C -0.0152 -4.3787 -4.9731 0
M  V30 156 C -0.0279 -5.5790 -5.6936 0
M  V30 157 C -0.0471 -6.7903 -5.0031 0
M  V30 158 C -0.0566 -6.7947 -3.6156 0
M  V30 159 C -0.0394 -5.6033 -2.9359 0
M  V30 160 C -0.0073 -4.3774 -3.5810 0
M  V30 161 C -0.1957 0.2626 -6.1091 0
M  V30 162 H 0.9684 5.2399 -6.4771 0
M  V30 163 H 1.0708 7.5874 -5.8288 0
M  V30 164 H 0.4748 8.2596 -3.4938 0
M  V30 165 H -0.6998 4.1113 -2.7549 0
M  V30 166 H -0.4179 2.6108 -8.5640 0
M  V30 167 H -0.2550 -1.6797 -8.8553 0
M  V30 168 H -0.0387 -5.5788 -6.7802 0
M  V30 169 H -0.0725 -7.7242 -5.5475 0
M  V30 170 H -0.0937 -7.7441 -3.0828 0
M  V30 171 H -0.0076 -3.4311 -3.0563 0
M  V30 172 H -0.1234 0.2161 -5.0157 0
M  V30 END ATOM
M  V30 BEGIN BOND
M  V30 1 1 3 4
M  V30 2 2 3 5
M  V30 3 1 6 7
M  V30 4 2 6 8
M  V30 5 1 9 10
M  V30 6 2 9 11
M  V30 7 1 12 13
M  V30 8 2 12 14
M  V30 9 9 4 1
M  V30 10 9 5 2
M  V30 11 9 7 1
M  V30 12 9 8 2
M  V30 13 9 10 1
M  V30 14 9 11 2
M  V30 15 9 13 1
M  V30 16 9 14 2
M  V30 17 1 17 18
M  V30 18 2 17 19
M  V30 19 1 20 21
M  V30 20 2 20 22
M  V30 21 1 23 24
M  V30 22 2 23 25
M  V30 23 1 26 27
M  V30 24 2 26 28
M  V30 25 9 18 15
M  V30 26 9 19 16
M  V30 27 9 21 15
M  V30 28 9 22 16
M  V30 29 9 24 15
M  V30 30 9 25 16
M  V30 31 9 27 15
M  V30 32 9 28 16
M  V30 33 1 29 30
M  V30 34 2 29 34
M  V30 35 1 29 35
M  V30 36 2 30 31
M  V30 37 1 30 54
M  V30 38 1 31 32
M  V30 39 1 31 55
M  V30 40 2 32 33
M  V30 41 1 32 56
M  V30 42 1 33 34
M  V30 43 1 34 57
M  V30 44 3 35 36
M  V30 45 1 36 37
M  V30 46 2 37 38
M  V30 47 1 37 53
M  V30 48 1 38 39
M  V30 49 1 38 58
M  V30 50 1 39 40
M  V30 51 2 39 43
M  V30 52 1 40 41
M  V30 53 1 40 42
M  V30 54 1 43 44
M  V30 55 1 43 59
M  V30 56 1 44 45
M  V30 57 2 44 53
M  V30 58 3 45 46
M  V30 59 1 46 47
M  V30 60 1 47 48
M  V30 61 2 47 52
M  V30 62 2 48 49
M  V30 63 1 48 60
M  V30 64 1 49 50
M  V30 65 1 49 61
M  V30 66 2 50 51
M  V30 67 1 50 62
M  V30 68 1 51 52
M  V30 69 1 52 63
M  V30 70 1 53 64
M  V30 71 1 65 66
M  V30 72 2 65 70
M  V30 73 1 65 71
M  V30 74 2 66 67
M  V30 75 1 66 90
M  V30 76 1 67 68
M  V30 77 1 67 91
M  V30 78 2 68 69
M  V30 79 1 68 92
M  V30 80 1 69 70
M  V30 81 1 70 93
M  V30 82 3 71 72
M  V30 83 1 72 73
M  V30 84 2 73 74
M  V30 85 1 73 89
M  V30 86 1 74 75
M  V30 87 1 74 94
M  V30 88 1 75 76
M  V30 89 2 75 79
M  V30 90 1 76 77
M  V30 91 1 76 78
M  V30 92 1 79 80
M  V30 93 1 79 95
M  V30 94 1 80 81
M  V30 95 2 80 89
M  V30 96 3 81 82
M  V30 97 1 82 83
M  V30 98 1 83 84
M  V30 99 2 83 88
M  V30 100 2 84 85
M  V30 101 1 84 96
M  V30 102 1 85 86
M  V30 103 1 85 97
M  V30 104 2 86 87
M  V30 105 1 86 98
M  V30 106 1 87 88
M  V30 107 1 88 99
M  V30 108 1 89 100
M  V30 109 1 101 102
M  V30 110 2 101 106
M  V30 111 1 101 107
M  V30 112 2 102 103
M  V30 113 1 102 126
M  V30 114 1 103 104
M  V30 115 1 103 127
M  V30 116 2 104 105
M  V30 117 1 104 128
M  V30 118 1 105 106
M  V30 119 1 106 129
M  V30 120 3 107 108
M  V30 121 1 108 109
M  V30 122 2 109 110
M  V30 123 1 109 125
M  V30 124 1 110 111
M  V30 125 1 110 130
M  V30 126 1 111 112
M  V30 127 2 111 115
M  V30 128 1 112 113
M  V30 129 1 112 114
M  V30 130 1 115 116
M  V30 131 1 115 131
M  V30 132 1 116 117
M  V30 133 2 116 125
M  V30 134 3 117 118
M  V30 135 1 118 119
M  V30 136 1 119 120
M  V30 137 2 119 124
M  V30 138 2 120 121
M  V30 139 1 120 132
M  V30 140 1 121 122
M  V30 141 1 121 133
M  V30 142 2 122 123
M  V30 143 1 122 134
M  V30 144 1 123 124
M  V30 145 1 124 135
M  V30 146 1 125 136
M  V30 147 1 137 138
M  V30 148 2 137 142
M  V30 149 1 137 143
M  V30 150 2 138 139
M  V30 151 1 138 162
M  V30 152 1 139 140
M  V30 153 1 139 163
M  V30 154 2 140 141
M  V30 155 1 140 164
M  V30 156 1 141 142
M  V30 157 1 142 165
M  V30 158 3 143 144
M  V30 159 1 144 145
M  V30 160 2 145 146
M  V30 161 1 145 161
M  V30 162 1 146 147
M  V30 163 1 146 166
M  V30 164 1 147 148
M  V30 165 2 147 151
M  V30 166 1 148 149
M  V30 167 1 148 150
M  V30 168 1 151 152
M  V30 169 1 151 167
M  V30 170 1 152 153
M  V30 171 2 152 161
M  V30 172 3 153 154
M  V30 173 1 154 155
M  V30 174 1 155 156
M  V30 175 2 155 160
M  V30 176 2 156 157
M  V30 177 1 156 168
M  V30 178 1 157 158
M  V30 179 1 157 169
M  V30 180 2 158 159
M  V30 181 1 158 170
M  V30 182 1 159 160
M  V30 183 1 160 171
M  V30 184 1 161 172
M  V30 185 1 3 33
M  V30 186 1 6 69
M  V30 187 1 9 105
M  V30 188 1 12 141
M  V30 189 1 17 51
M  V30 190 1 26 87
M  V30 191 1 23 123
M  V30 192 1 20 159
M  V30 END BOND
M  V30 END CTAB
M  END

$$$$
