
     RDKit          3D

  0  0  0  0  0  0  0  0  0  0999 V3000
M  V30 BEGIN CTAB
M  V30 COUNTS 780 872 0 0 0
M  V30 BEGIN ATOM
M  V30 1 Cu 176.5721 176.6733 86.3579 0 CHG=2
M  V30 2 Cu 176.8114 176.7622 88.7722 0 CHG=2
M  V30 3 C 179.0527 176.9684 87.5355 0
M  V30 4 O 178.4216 176.9791 86.3437 0
M  V30 5 O 178.4099 176.9652 88.5735 0
M  V30 6 C 176.7237 179.0378 87.5601 0
M  V30 7 O 176.7266 178.4078 86.3677 0
M  V30 8 O 176.7149 178.3940 88.5975 0
M  V30 9 C 174.5966 176.9897 87.5354 0
M  V30 10 O 175.2402 176.9937 86.3503 0
M  V30 11 O 175.2285 176.9798 88.5801 0
M  V30 12 C 176.6940 174.5371 87.5273 0
M  V30 13 O 176.7036 175.1818 86.3428 0
M  V30 14 O 176.6919 175.1680 88.5726 0
M  V30 15 Cu 176.6173 176.9354 100.8391 0 CHG=2
M  V30 16 Cu 176.8635 176.8646 98.4249 0 CHG=2
M  V30 17 C 179.1134 176.8257 99.6626 0
M  V30 18 O 178.4844 176.7680 100.8541 0
M  V30 19 O 178.4726 176.7810 98.6243 0
M  V30 20 C 176.9448 174.5888 99.6370 0
M  V30 21 O 176.9004 175.2172 100.8294 0
M  V30 22 O 176.8886 175.2302 98.5997 0
M  V30 23 C 174.6713 176.4731 99.6608 0
M  V30 24 O 175.3129 176.5169 100.8462 0
M  V30 25 O 175.3011 176.5299 98.6164 0
M  V30 26 C 176.5805 179.0748 99.6698 0
M  V30 27 O 176.6375 178.4325 100.8542 0
M  V30 28 O 176.6257 178.4455 98.6245 0
M  V30 29 C 182.5110 177.1506 89.1823 0
M  V30 30 C 183.3455 177.7400 88.2667 0
M  V30 31 C 182.9499 177.8132 86.9519 0
M  V30 32 C 181.6441 177.4088 86.5962 0
M  V30 33 C 180.8228 176.9611 87.6438 0
M  V30 34 C 181.2598 176.7618 88.8947 0
M  V30 35 C 183.0391 176.9410 90.4019 0
M  V30 36 C 183.8011 176.8933 91.2650 0
M  V30 37 C 184.6233 176.8265 92.3360 0
M  V30 38 C 186.0058 176.8009 92.1940 0
M  V30 39 C 186.7887 176.8268 93.3453 0
M  V30 40 N 188.1958 176.7843 93.2576 0
M  V30 41 C 186.1643 176.8910 94.5970 0
M  V30 42 C 184.7770 176.9158 94.6893 0
M  V30 43 C 184.1494 176.9442 95.9460 0
M  V30 44 C 183.5269 176.9588 96.9565 0
M  V30 45 C 182.8583 176.9859 98.1982 0
M  V30 46 C 183.5788 176.9915 99.3986 0
M  V30 47 C 182.8896 176.9380 100.6096 0
M  V30 48 C 181.5034 176.8768 100.6136 0
M  V30 49 C 180.8234 176.8773 99.4222 0
M  V30 50 C 181.4669 176.9421 98.1967 0
M  V30 51 C 184.0000 176.8808 93.5560 0
M  V30 52 H 184.3242 178.0933 88.5872 0
M  V30 53 H 183.6724 178.1881 86.2404 0
M  V30 54 H 181.3611 177.5105 85.5634 0
M  V30 55 H 180.6666 176.2797 89.7031 0
M  V30 56 H 186.4613 176.7669 91.2068 0
M  V30 57 H 186.7466 176.9100 95.4984 0
M  V30 58 H 184.6651 177.0211 99.3985 0
M  V30 59 H 183.4346 176.9263 101.5434 0
M  V30 60 H 180.9724 176.8133 101.5626 0
M  V30 61 H 180.9425 176.9290 97.2503 0
M  V30 62 H 182.9047 176.9121 93.6028 0
M  V30 63 C 176.1661 182.4437 89.2450 0
M  V30 64 C 175.5831 183.2848 88.3313 0
M  V30 65 C 175.5193 182.8986 87.0132 0
M  V30 66 C 175.9261 181.5954 86.6510 0
M  V30 67 C 176.3665 180.7666 87.6958 0
M  V30 68 C 176.5568 181.1945 88.9512 0
M  V30 69 C 176.3671 182.9631 90.4698 0
M  V30 70 C 176.4086 183.7188 91.3387 0
M  V30 71 C 176.4678 184.5333 92.4160 0
M  V30 72 C 176.4944 185.9168 92.2841 0
M  V30 73 C 176.4604 186.6915 93.4407 0
M  V30 74 N 176.5036 188.0991 93.3634 0
M  V30 75 C 176.3874 186.0581 94.6874 0
M  V30 76 C 176.3620 184.6702 94.7697 0
M  V30 77 C 176.3247 184.0335 96.0216 0
M  V30 78 C 176.3030 183.4039 97.0274 0
M  V30 79 C 176.2671 182.7264 98.2641 0
M  V30 80 C 176.2530 183.4383 99.4695 0
M  V30 81 C 176.2980 182.7403 100.6759 0
M  V30 82 C 176.3591 181.3542 100.6704 0
M  V30 83 C 176.3671 180.6828 99.4742 0
M  V30 84 C 176.3109 181.3350 98.2530 0
M  V30 85 C 176.4049 183.9013 93.6311 0
M  V30 86 H 175.2276 184.2611 88.6562 0
M  V30 87 H 175.1494 183.6262 86.3042 0
M  V30 88 H 175.8317 181.3198 85.6155 0
M  V30 89 H 177.0332 180.5956 89.7587 0
M  V30 90 H 176.5354 186.3793 91.3004 0
M  V30 91 H 176.3621 186.6339 95.5928 0
M  V30 92 H 176.2234 184.5245 99.4771 0
M  V30 93 H 176.3031 183.2786 101.6136 0
M  V30 94 H 176.4160 180.8164 101.6160 0
M  V30 95 H 176.3307 180.8174 97.3030 0
M  V30 96 H 176.3733 182.8057 93.6698 0
M  V30 97 C 171.1521 176.4458 89.1761 0
M  V30 98 C 170.3175 175.8695 88.2523 0
M  V30 99 C 170.7130 175.8150 86.9366 0
M  V30 100 C 172.0188 176.2244 86.5864 0
M  V30 101 C 172.8402 176.6572 87.6403 0
M  V30 102 C 172.4033 176.8386 88.8939 0
M  V30 103 C 170.6241 176.6381 90.3986 0
M  V30 104 C 169.8623 176.6734 91.2624 0
M  V30 105 C 169.0402 176.7250 92.3344 0
M  V30 106 C 167.6576 176.7526 92.1928 0
M  V30 107 C 166.8748 176.7103 93.3437 0
M  V30 108 N 165.4678 176.7541 93.2568 0
M  V30 109 H 164.9986 176.8270 92.3431 0
M  V30 110 H 164.9008 176.7380 94.1155 0
M  V30 111 C 167.4994 176.6283 94.5943 0
M  V30 112 C 168.8867 176.6022 94.6862 0
M  V30 113 C 169.5145 176.5560 95.9422 0
M  V30 114 C 170.1370 176.5270 96.9523 0
M  V30 115 C 170.8058 176.4822 98.1935 0
M  V30 116 C 170.0854 176.4595 99.3937 0
M  V30 117 C 170.7748 176.4958 100.6053 0
M  V30 118 C 172.1609 176.5569 100.6100 0
M  V30 119 C 172.8408 176.5734 99.4187 0
M  V30 120 C 172.1972 176.5261 98.1925 0
M  V30 121 C 169.6636 176.6533 93.5534 0
M  V30 122 H 169.3389 175.5117 88.5678 0
M  V30 123 H 169.9904 175.4503 86.2198 0
M  V30 124 H 172.3016 176.1374 85.5524 0
M  V30 125 H 172.9966 177.3092 89.7091 0
M  V30 126 H 167.2021 176.8007 91.2063 0
M  V30 127 H 166.9172 176.5966 95.4954 0
M  V30 128 H 168.9991 176.4299 99.3934 0
M  V30 129 H 170.2299 176.4943 101.5392 0
M  V30 130 H 172.6920 176.6070 101.5598 0
M  V30 131 H 172.7215 176.5526 97.2463 0
M  V30 132 H 170.7589 176.6214 93.5996 0
M  V30 133 C 177.3231 171.2130 89.3261 0
M  V30 134 C 177.9060 170.3850 88.4005 0
M  V30 135 C 177.9697 170.7899 87.0880 0
M  V30 136 C 177.5628 172.0981 86.7444 0
M  V30 137 C 177.1226 172.9120 87.8010 0
M  V30 138 C 176.9323 172.4662 89.0501 0
M  V30 139 C 177.1222 170.6762 90.5434 0
M  V30 140 C 177.0808 169.9082 91.4015 0
M  V30 141 C 177.0217 169.0785 92.4671 0
M  V30 142 C 176.9951 167.6969 92.3155 0
M  V30 143 C 177.0292 166.9059 93.4610 0
M  V30 144 N 176.9860 165.4996 93.3637 0
M  V30 145 H 176.9196 165.0369 92.4462 0
M  V30 146 H 176.9961 164.9264 94.2184 0
M  V30 147 C 177.1024 167.5215 94.7166 0
M  V30 148 C 177.1278 168.9081 94.8186 0
M  V30 149 C 177.1652 169.5269 96.0794 0
M  V30 150 C 177.1870 170.1422 97.0941 0
M  V30 151 C 177.2231 170.8020 98.3403 0
M  V30 152 C 177.2373 170.0731 99.5355 0
M  V30 153 C 177.1924 170.7537 100.7517 0
M  V30 154 C 177.1313 172.1398 100.7659 0
M  V30 155 C 177.1232 172.8282 99.5794 0
M  V30 156 C 177.1792 172.1934 98.3490 0
M  V30 157 C 177.0847 169.6931 93.6911 0
M  V30 158 H 178.2615 169.4041 88.7114 0
M  V30 159 H 178.3395 170.0724 86.3687 0
M  V30 160 H 177.6571 172.3884 85.7130 0
M  V30 161 H 176.4560 173.0536 89.8662 0
M  V30 162 H 176.9540 167.2485 91.3254 0
M  V30 163 H 177.1278 166.9329 95.6137 0
M  V30 164 H 177.2669 168.9868 99.5276 0
M  V30 165 H 177.1874 170.2022 101.6817 0
M  V30 166 H 177.0745 172.6641 101.7190 0
M  V30 167 H 177.1593 172.7245 97.4064 0
M  V30 168 H 177.1163 170.7881 93.7453 0
M  V30 169 Cu 176.5752 207.6919 86.3548 0 CHG=2
M  V30 170 Cu 176.8145 207.7808 88.7691 0 CHG=2
M  V30 171 C 179.0558 207.9869 87.5324 0
M  V30 172 O 178.4247 207.9977 86.3407 0
M  V30 173 O 178.4130 207.9838 88.5704 0
M  V30 174 C 176.7268 210.0563 87.5570 0
M  V30 175 O 176.7297 209.4264 86.3646 0
M  V30 176 O 176.7180 209.4125 88.5944 0
M  V30 177 C 174.5997 208.0082 87.5323 0
M  V30 178 O 175.2433 208.0123 86.3472 0
M  V30 179 O 175.2316 207.9984 88.5770 0
M  V30 180 C 176.6971 205.5557 87.5242 0
M  V30 181 O 176.7067 206.2004 86.3397 0
M  V30 182 O 176.6950 206.1865 88.5695 0
M  V30 183 Cu 176.6204 207.9540 100.8361 0 CHG=2
M  V30 184 Cu 176.8666 207.8832 98.4219 0 CHG=2
M  V30 185 C 179.1165 207.8442 99.6595 0
M  V30 186 O 178.4875 207.7865 100.8510 0
M  V30 187 O 178.4757 207.7996 98.6212 0
M  V30 188 C 176.9479 205.6074 99.6339 0
M  V30 189 O 176.9035 206.2358 100.8264 0
M  V30 190 O 176.8917 206.2488 98.5966 0
M  V30 191 C 174.6744 207.4916 99.6577 0
M  V30 192 O 175.3160 207.5354 100.8431 0
M  V30 193 O 175.3042 207.5484 98.6133 0
M  V30 194 C 176.5836 210.0933 99.6667 0
M  V30 195 O 176.6406 209.4511 100.8512 0
M  V30 196 O 176.6288 209.4641 98.6214 0
M  V30 197 C 182.5141 208.1692 89.1792 0
M  V30 198 C 183.3486 208.7586 88.2637 0
M  V30 199 C 182.9530 208.8317 86.9489 0
M  V30 200 C 181.6472 208.4274 86.5931 0
M  V30 201 C 180.8259 207.9796 87.6407 0
M  V30 202 C 181.2629 207.7804 88.8916 0
M  V30 203 C 183.0422 207.9595 90.3988 0
M  V30 204 C 183.8042 207.9119 91.2619 0
M  V30 205 C 184.6264 207.8451 92.3330 0
M  V30 206 C 186.0089 207.8195 92.1909 0
M  V30 207 C 186.7918 207.8454 93.3422 0
M  V30 208 N 188.1989 207.8028 93.2545 0
M  V30 209 C 186.1674 207.9096 94.5939 0
M  V30 210 C 184.7801 207.9344 94.6863 0
M  V30 211 C 184.1525 207.9628 95.9429 0
M  V30 212 C 183.5300 207.9773 96.9534 0
M  V30 213 C 182.8614 208.0045 98.1951 0
M  V30 214 C 183.5819 208.0101 99.3955 0
M  V30 215 C 182.8927 207.9566 100.6065 0
M  V30 216 C 181.5065 207.8954 100.6105 0
M  V30 217 C 180.8265 207.8958 99.4191 0
M  V30 218 C 181.4700 207.9606 98.1936 0
M  V30 219 C 184.0031 207.8994 93.5530 0
M  V30 220 H 184.3273 209.1118 88.5841 0
M  V30 221 H 183.6755 209.2067 86.2373 0
M  V30 222 H 181.3642 208.5291 85.5604 0
M  V30 223 H 180.6697 207.2983 89.7000 0
M  V30 224 H 186.4644 207.7855 91.2037 0
M  V30 225 H 186.7497 207.9285 95.4953 0
M  V30 226 H 184.6682 208.0397 99.3954 0
M  V30 227 H 183.4377 207.9448 101.5403 0
M  V30 228 H 180.9755 207.8318 101.5595 0
M  V30 229 H 180.9456 207.9475 97.2473 0
M  V30 230 H 182.9078 207.9306 93.5997 0
M  V30 231 C 176.1692 213.4623 89.2419 0
M  V30 232 C 175.5862 214.3033 88.3282 0
M  V30 233 C 175.5224 213.9171 87.0101 0
M  V30 234 C 175.9292 212.6139 86.6479 0
M  V30 235 C 176.3696 211.7851 87.6927 0
M  V30 236 C 176.5599 212.2131 88.9481 0
M  V30 237 C 176.3702 213.9816 90.4667 0
M  V30 238 C 176.4117 214.7374 91.3356 0
M  V30 239 C 176.4709 215.5519 92.4129 0
M  V30 240 C 176.4975 216.9354 92.2810 0
M  V30 241 C 176.4635 217.7100 93.4376 0
M  V30 242 N 176.5067 219.1176 93.3603 0
M  V30 243 C 176.3905 217.0767 94.6843 0
M  V30 244 C 176.3651 215.6888 94.7666 0
M  V30 245 C 176.3278 215.0521 96.0185 0
M  V30 246 C 176.3061 214.4224 97.0243 0
M  V30 247 C 176.2702 213.7449 98.2610 0
M  V30 248 C 176.2561 214.4568 99.4664 0
M  V30 249 C 176.3011 213.7589 100.6729 0
M  V30 250 C 176.3622 212.3727 100.6674 0
M  V30 251 C 176.3702 211.7013 99.4711 0
M  V30 252 C 176.3140 212.3535 98.2499 0
M  V30 253 C 176.4080 214.9198 93.6280 0
M  V30 254 H 175.2307 215.2797 88.6531 0
M  V30 255 H 175.1525 214.6447 86.3011 0
M  V30 256 H 175.8348 212.3384 85.6125 0
M  V30 257 H 177.0363 211.6141 89.7556 0
M  V30 258 H 176.5385 217.3979 91.2973 0
M  V30 259 H 176.3652 217.6524 95.5898 0
M  V30 260 H 176.2265 215.5431 99.4740 0
M  V30 261 H 176.3062 214.2972 101.6106 0
M  V30 262 H 176.4191 211.8350 101.6129 0
M  V30 263 H 176.3338 211.8360 97.2999 0
M  V30 264 H 176.3764 213.8242 93.6667 0
M  V30 265 C 171.1552 207.4644 89.1730 0
M  V30 266 C 170.3206 206.8880 88.2492 0
M  V30 267 C 170.7161 206.8336 86.9335 0
M  V30 268 C 172.0219 207.2429 86.5834 0
M  V30 269 C 172.8433 207.6758 87.6372 0
M  V30 270 C 172.4064 207.8572 88.8908 0
M  V30 271 C 170.6272 207.6566 90.3955 0
M  V30 272 C 169.8654 207.6920 91.2593 0
M  V30 273 C 169.0433 207.7435 92.3313 0
M  V30 274 C 167.6607 207.7711 92.1898 0
M  V30 275 C 166.8779 207.7289 93.3406 0
M  V30 276 N 165.4709 207.7727 93.2537 0
M  V30 277 H 165.0017 207.8455 92.3400 0
M  V30 278 H 164.9039 207.7565 94.1124 0
M  V30 279 C 167.5025 207.6469 94.5912 0
M  V30 280 C 168.8898 207.6208 94.6831 0
M  V30 281 C 169.5176 207.5745 95.9392 0
M  V30 282 C 170.1401 207.5456 96.9492 0
M  V30 283 C 170.8089 207.5008 98.1904 0
M  V30 284 C 170.0885 207.4781 99.3906 0
M  V30 285 C 170.7779 207.5144 100.6022 0
M  V30 286 C 172.1640 207.5755 100.6069 0
M  V30 287 C 172.8439 207.5920 99.4156 0
M  V30 288 C 172.2003 207.5446 98.1894 0
M  V30 289 C 169.6667 207.6719 93.5503 0
M  V30 290 H 169.3420 206.5303 88.5647 0
M  V30 291 H 169.9935 206.4688 86.2168 0
M  V30 292 H 172.3047 207.1560 85.5493 0
M  V30 293 H 172.9997 208.3278 89.7060 0
M  V30 294 H 167.2052 207.8192 91.2032 0
M  V30 295 H 166.9203 207.6151 95.4923 0
M  V30 296 H 169.0022 207.4485 99.3903 0
M  V30 297 H 170.2330 207.5128 101.5361 0
M  V30 298 H 172.6951 207.6255 101.5567 0
M  V30 299 H 172.7246 207.5712 97.2432 0
M  V30 300 H 170.7620 207.6400 93.5965 0
M  V30 301 C 177.3262 202.2315 89.3230 0
M  V30 302 C 177.9091 201.4035 88.3974 0
M  V30 303 C 177.9728 201.8085 87.0849 0
M  V30 304 C 177.5659 203.1167 86.7413 0
M  V30 305 C 177.1257 203.9305 87.7979 0
M  V30 306 C 176.9354 203.4847 89.0470 0
M  V30 307 C 177.1253 201.6948 90.5403 0
M  V30 308 C 177.0839 200.9268 91.3984 0
M  V30 309 C 177.0248 200.0970 92.4640 0
M  V30 310 C 176.9982 198.7155 92.3124 0
M  V30 311 C 177.0323 197.9245 93.4579 0
M  V30 312 N 176.9891 196.5181 93.3606 0
M  V30 313 C 177.1055 198.5401 94.7135 0
M  V30 314 C 177.1309 199.9267 94.8155 0
M  V30 315 C 177.1683 200.5455 96.0763 0
M  V30 316 C 177.1901 201.1607 97.0910 0
M  V30 317 C 177.2262 201.8206 98.3372 0
M  V30 318 C 177.2404 201.0916 99.5324 0
M  V30 319 C 177.1955 201.7723 100.7486 0
M  V30 320 C 177.1344 203.1584 100.7628 0
M  V30 321 C 177.1263 203.8468 99.5763 0
M  V30 322 C 177.1823 203.2120 98.3459 0
M  V30 323 C 177.0878 200.7117 93.6880 0
M  V30 324 H 178.2646 200.4227 88.7084 0
M  V30 325 H 178.3426 201.0910 86.3656 0
M  V30 326 H 177.6602 203.4070 85.7099 0
M  V30 327 H 176.4591 204.0722 89.8631 0
M  V30 328 H 176.9571 198.2671 91.3223 0
M  V30 329 H 177.1309 197.9515 95.6106 0
M  V30 330 H 177.2700 200.0054 99.5245 0
M  V30 331 H 177.1905 201.2207 101.6786 0
M  V30 332 H 177.0776 203.6827 101.7160 0
M  V30 333 H 177.1624 203.7430 97.4033 0
M  V30 334 H 177.1194 201.8067 93.7422 0
M  V30 335 Cu 207.5904 176.6747 86.3538 0 CHG=2
M  V30 336 Cu 207.8296 176.7636 88.7681 0 CHG=2
M  V30 337 C 210.0709 176.9697 87.5314 0
M  V30 338 O 209.4398 176.9805 86.3396 0
M  V30 339 O 209.4281 176.9666 88.5694 0
M  V30 340 C 207.7420 179.0391 87.5560 0
M  V30 341 O 207.7449 178.4092 86.3636 0
M  V30 342 O 207.7331 178.3953 88.5933 0
M  V30 343 C 205.6148 176.9910 87.5313 0
M  V30 344 O 206.2584 176.9951 86.3462 0
M  V30 345 O 206.2467 176.9812 88.5759 0
M  V30 346 C 207.7123 174.5385 87.5232 0
M  V30 347 O 207.7218 175.1832 86.3387 0
M  V30 348 O 207.7101 175.1693 88.5685 0
M  V30 349 Cu 207.6356 176.9368 100.8350 0 CHG=2
M  V30 350 Cu 207.8818 176.8660 98.4208 0 CHG=2
M  V30 351 C 210.1317 176.8270 99.6585 0
M  V30 352 O 209.5026 176.7693 100.8500 0
M  V30 353 O 209.4908 176.7824 98.6202 0
M  V30 354 C 207.9631 174.5902 99.6329 0
M  V30 355 O 207.9186 175.2186 100.8253 0
M  V30 356 O 207.9068 175.2316 98.5955 0
M  V30 357 C 205.6895 176.4744 99.6567 0
M  V30 358 O 206.3311 176.5182 100.8421 0
M  V30 359 O 206.3193 176.5312 98.6123 0
M  V30 360 C 207.5987 179.0761 99.6657 0
M  V30 361 O 207.6557 178.4339 100.8501 0
M  V30 362 O 207.6440 178.4469 98.6203 0
M  V30 363 C 213.5292 177.1520 89.1782 0
M  V30 364 C 214.3637 177.7414 88.2626 0
M  V30 365 C 213.9681 177.8145 86.9478 0
M  V30 366 C 212.6623 177.4102 86.5920 0
M  V30 367 C 211.8410 176.9624 87.6397 0
M  V30 368 C 212.2780 176.7632 88.8906 0
M  V30 369 C 214.0574 176.9423 90.3978 0
M  V30 370 C 214.8193 176.8947 91.2609 0
M  V30 371 C 215.6415 176.8279 92.3319 0
M  V30 372 C 217.0241 176.8023 92.1899 0
M  V30 373 C 217.8070 176.8282 93.3411 0
M  V30 374 N 219.2140 176.7856 93.2535 0
M  V30 375 C 217.1826 176.8924 94.5929 0
M  V30 376 C 215.7953 176.9172 94.6852 0
M  V30 377 C 215.1676 176.9456 95.9419 0
M  V30 378 C 214.5451 176.9601 96.9523 0
M  V30 379 C 213.8765 176.9873 98.1941 0
M  V30 380 C 214.5970 176.9929 99.3944 0
M  V30 381 C 213.9078 176.9394 100.6055 0
M  V30 382 C 212.5216 176.8782 100.6095 0
M  V30 383 C 211.8417 176.8786 99.4181 0
M  V30 384 C 212.4851 176.9434 98.1926 0
M  V30 385 C 215.0182 176.8822 93.5519 0
M  V30 386 H 215.3424 178.0946 88.5830 0
M  V30 387 H 214.6906 178.1895 86.2363 0
M  V30 388 H 212.3794 177.5119 85.5593 0
M  V30 389 H 211.6848 176.2811 89.6990 0
M  V30 390 H 217.4795 176.7683 91.2027 0
M  V30 391 H 217.7648 176.9113 95.4943 0
M  V30 392 H 215.6833 177.0225 99.3944 0
M  V30 393 H 214.4528 176.9276 101.5393 0
M  V30 394 H 211.9906 176.8146 101.5585 0
M  V30 395 H 211.9607 176.9303 97.2462 0
M  V30 396 H 213.9229 176.9134 93.5987 0
M  V30 397 C 207.1843 182.4451 89.2409 0
M  V30 398 C 206.6013 183.2861 88.3272 0
M  V30 399 C 206.5375 182.8999 87.0091 0
M  V30 400 C 206.9443 181.5967 86.6468 0
M  V30 401 C 207.3847 180.7679 87.6917 0
M  V30 402 C 207.5751 181.1959 88.9470 0
M  V30 403 C 207.3853 182.9644 90.4657 0
M  V30 404 C 207.4268 183.7202 91.3345 0
M  V30 405 C 207.4861 184.5347 92.4119 0
M  V30 406 C 207.5126 185.9182 92.2800 0
M  V30 407 C 207.4786 186.6928 93.4366 0
M  V30 408 N 207.5218 188.1004 93.3593 0
M  V30 409 C 207.4056 186.0595 94.6833 0
M  V30 410 C 207.3802 184.6716 94.7655 0
M  V30 411 C 207.3429 184.0349 96.0175 0
M  V30 412 C 207.3212 183.4052 97.0233 0
M  V30 413 C 207.2853 182.7277 98.2600 0
M  V30 414 C 207.2712 183.4396 99.4654 0
M  V30 415 C 207.3162 182.7417 100.6718 0
M  V30 416 C 207.3773 181.3555 100.6663 0
M  V30 417 C 207.3853 180.6841 99.4701 0
M  V30 418 C 207.3291 181.3363 98.2488 0
M  V30 419 C 207.4231 183.9026 93.6270 0
M  V30 420 H 206.2458 184.2625 88.6521 0
M  V30 421 H 206.1676 183.6275 86.3001 0
M  V30 422 H 206.8499 181.3212 85.6114 0
M  V30 423 H 208.0515 180.5969 89.7546 0
M  V30 424 H 207.5537 186.3807 91.2963 0
M  V30 425 H 207.3803 186.6352 95.5887 0
M  V30 426 H 207.2416 184.5259 99.4729 0
M  V30 427 H 207.3213 183.2800 101.6095 0
M  V30 428 H 207.4342 180.8178 101.6119 0
M  V30 429 H 207.3489 180.8188 97.2988 0
M  V30 430 H 207.3916 182.8070 93.6656 0
M  V30 431 C 202.1703 176.4472 89.1720 0
M  V30 432 C 201.3357 175.8708 88.2482 0
M  V30 433 C 201.7312 175.8164 86.9325 0
M  V30 434 C 203.0370 176.2257 86.5823 0
M  V30 435 C 203.8584 176.6586 87.6361 0
M  V30 436 C 203.4215 176.8400 88.8898 0
M  V30 437 C 201.6424 176.6394 90.3945 0
M  V30 438 C 200.8805 176.6748 91.2583 0
M  V30 439 C 200.0584 176.7263 92.3302 0
M  V30 440 C 198.6758 176.7539 92.1887 0
M  V30 441 C 197.8931 176.7117 93.3396 0
M  V30 442 N 196.4860 176.7555 93.2527 0
M  V30 443 C 198.5176 176.6297 94.5902 0
M  V30 444 C 199.9049 176.6036 94.6820 0
M  V30 445 C 200.5327 176.5573 95.9381 0
M  V30 446 C 201.1553 176.5284 96.9482 0
M  V30 447 C 201.8240 176.4836 98.1894 0
M  V30 448 C 201.1036 176.4609 99.3896 0
M  V30 449 C 201.7930 176.4972 100.6012 0
M  V30 450 C 203.1792 176.5583 100.6059 0
M  V30 451 C 203.8590 176.5748 99.4146 0
M  V30 452 C 203.2154 176.5274 98.1883 0
M  V30 453 C 200.6818 176.6547 93.5493 0
M  V30 454 H 200.3571 175.5131 88.5637 0
M  V30 455 H 201.0087 175.4516 86.2157 0
M  V30 456 H 203.3198 176.1388 85.5482 0
M  V30 457 H 204.0148 177.3106 89.7049 0
M  V30 458 H 198.2203 176.8020 91.2022 0
M  V30 459 H 197.9355 176.5979 95.4913 0
M  V30 460 H 200.0174 176.4313 99.3892 0
M  V30 461 H 201.2481 176.4956 101.5351 0
M  V30 462 H 203.7102 176.6083 101.5556 0
M  V30 463 H 203.7397 176.5540 97.2422 0
M  V30 464 H 201.7772 176.6228 93.5955 0
M  V30 465 C 208.3413 171.2143 89.3220 0
M  V30 466 C 208.9242 170.3863 88.3964 0
M  V30 467 C 208.9879 170.7913 87.0839 0
M  V30 468 C 208.5811 172.0995 86.7403 0
M  V30 469 C 208.1408 172.9133 87.7969 0
M  V30 470 C 207.9505 172.4675 89.0460 0
M  V30 471 C 208.1405 170.6776 90.5393 0
M  V30 472 C 208.0990 169.9096 91.3973 0
M  V30 473 C 208.0399 169.0798 92.4630 0
M  V30 474 C 208.0133 167.6983 92.3114 0
M  V30 475 C 208.0474 166.9073 93.4569 0
M  V30 476 N 208.0042 165.5009 93.3596 0
M  V30 477 H 207.9378 165.0382 92.4421 0
M  V30 478 H 208.0143 164.9278 94.2143 0
M  V30 479 C 208.1206 167.5229 94.7125 0
M  V30 480 C 208.1460 168.9095 94.8144 0
M  V30 481 C 208.1834 169.5283 96.0753 0
M  V30 482 C 208.2053 170.1435 97.0900 0
M  V30 483 C 208.2413 170.8034 98.3362 0
M  V30 484 C 208.2555 170.0744 99.5313 0
M  V30 485 C 208.2107 170.7551 100.7476 0
M  V30 486 C 208.1495 172.1412 100.7618 0
M  V30 487 C 208.1414 172.8296 99.5753 0
M  V30 488 C 208.1974 172.1948 98.3448 0
M  V30 489 C 208.1029 169.6945 93.6869 0
M  V30 490 H 209.2797 169.4055 88.7073 0
M  V30 491 H 209.3577 170.0738 86.3646 0
M  V30 492 H 208.6753 172.3898 85.7089 0
M  V30 493 H 207.4742 173.0550 89.8621 0
M  V30 494 H 207.9722 167.2499 91.3213 0
M  V30 495 H 208.1460 166.9343 95.6096 0
M  V30 496 H 208.2851 168.9882 99.5234 0
M  V30 497 H 208.2056 170.2035 101.6775 0
M  V30 498 H 208.0928 172.6655 101.7149 0
M  V30 499 H 208.1775 172.7258 97.4023 0
M  V30 500 H 208.1345 170.7895 93.7412 0
M  V30 501 Cu 207.5921 207.6919 86.3506 0 CHG=2
M  V30 502 Cu 207.8313 207.7807 88.7649 0 CHG=2
M  V30 503 C 210.0726 207.9869 87.5282 0
M  V30 504 O 209.4415 207.9977 86.3364 0
M  V30 505 O 209.4298 207.9838 88.5662 0
M  V30 506 C 207.7437 210.0563 87.5528 0
M  V30 507 O 207.7466 209.4264 86.3604 0
M  V30 508 O 207.7348 209.4125 88.5902 0
M  V30 509 C 205.6165 208.0082 87.5281 0
M  V30 510 O 206.2601 208.0122 86.3430 0
M  V30 511 O 206.2484 207.9983 88.5728 0
M  V30 512 C 207.7140 205.5556 87.5200 0
M  V30 513 O 207.7235 206.2004 86.3355 0
M  V30 514 O 207.7118 206.1865 88.5653 0
M  V30 515 Cu 207.6373 207.9539 100.8319 0 CHG=2
M  V30 516 Cu 207.8835 207.8831 98.4176 0 CHG=2
M  V30 517 C 210.1334 207.8442 99.6553 0
M  V30 518 O 209.5043 207.7865 100.8468 0
M  V30 519 O 209.4925 207.7995 98.6170 0
M  V30 520 C 207.9648 205.6073 99.6297 0
M  V30 521 O 207.9203 206.2357 100.8221 0
M  V30 522 O 207.9085 206.2487 98.5924 0
M  V30 523 C 205.6912 207.4916 99.6535 0
M  V30 524 O 206.3328 207.5354 100.8389 0
M  V30 525 O 206.3210 207.5484 98.6091 0
M  V30 526 C 207.6004 210.0933 99.6625 0
M  V30 527 O 207.6574 209.4511 100.8470 0
M  V30 528 O 207.6457 209.4641 98.6172 0
M  V30 529 C 213.5309 208.1691 89.1750 0
M  V30 530 C 214.3655 208.7585 88.2594 0
M  V30 531 C 213.9698 208.8317 86.9446 0
M  V30 532 C 212.6640 208.4274 86.5889 0
M  V30 533 C 211.8427 207.9796 87.6365 0
M  V30 534 C 212.2797 207.7803 88.8874 0
M  V30 535 C 214.0591 207.9595 90.3946 0
M  V30 536 C 214.8210 207.9119 91.2577 0
M  V30 537 C 215.6432 207.8451 92.3287 0
M  V30 538 C 217.0258 207.8195 92.1867 0
M  V30 539 C 217.8087 207.8454 93.3380 0
M  V30 540 N 219.2157 207.8028 93.2503 0
M  V30 541 C 217.1843 207.9096 94.5897 0
M  V30 542 C 215.7970 207.9343 94.6820 0
M  V30 543 C 215.1693 207.9627 95.9387 0
M  V30 544 C 214.5469 207.9773 96.9492 0
M  V30 545 C 213.8782 208.0045 98.1909 0
M  V30 546 C 214.5987 208.0100 99.3913 0
M  V30 547 C 213.9095 207.9565 100.6023 0
M  V30 548 C 212.5233 207.8954 100.6063 0
M  V30 549 C 211.8434 207.8958 99.4149 0
M  V30 550 C 212.4868 207.9606 98.1894 0
M  V30 551 C 215.0199 207.8994 93.5488 0
M  V30 552 H 215.3441 209.1118 88.5799 0
M  V30 553 H 214.6923 209.2066 86.2331 0
M  V30 554 H 212.3811 208.5290 85.5561 0
M  V30 555 H 211.6865 207.2982 89.6958 0
M  V30 556 H 217.4812 207.7854 91.1995 0
M  V30 557 H 217.7665 207.9285 95.4911 0
M  V30 558 H 215.6850 208.0396 99.3912 0
M  V30 559 H 214.4545 207.9448 101.5361 0
M  V30 560 H 211.9924 207.8318 101.5553 0
M  V30 561 H 211.9624 207.9475 97.2430 0
M  V30 562 H 213.9246 207.9306 93.5955 0
M  V30 563 C 207.1860 213.4622 89.2377 0
M  V30 564 C 206.6030 214.3033 88.3240 0
M  V30 565 C 206.5392 213.9171 87.0059 0
M  V30 566 C 206.9460 212.6139 86.6437 0
M  V30 567 C 207.3864 211.7851 87.6885 0
M  V30 568 C 207.5768 212.2131 88.9439 0
M  V30 569 C 207.3870 213.9816 90.4625 0
M  V30 570 C 207.4285 214.7373 91.3314 0
M  V30 571 C 207.4878 215.5518 92.4087 0
M  V30 572 C 207.5144 216.9354 92.2768 0
M  V30 573 C 207.4803 217.7100 93.4334 0
M  V30 574 N 207.5235 219.1176 93.3561 0
M  V30 575 C 207.4073 217.0766 94.6801 0
M  V30 576 C 207.3819 215.6887 94.7624 0
M  V30 577 C 207.3446 215.0520 96.0143 0
M  V30 578 C 207.3229 214.4224 97.0201 0
M  V30 579 C 207.2870 213.7449 98.2568 0
M  V30 580 C 207.2729 214.4568 99.4622 0
M  V30 581 C 207.3179 213.7589 100.6686 0
M  V30 582 C 207.3790 212.3727 100.6631 0
M  V30 583 C 207.3870 211.7013 99.4669 0
M  V30 584 C 207.3308 212.3535 98.2457 0
M  V30 585 C 207.4248 214.9198 93.6238 0
M  V30 586 H 206.2475 215.2796 88.6489 0
M  V30 587 H 206.1693 214.6447 86.2969 0
M  V30 588 H 206.8516 212.3383 85.6082 0
M  V30 589 H 208.0532 211.6141 89.7514 0
M  V30 590 H 207.5554 217.3979 91.2931 0
M  V30 591 H 207.3820 217.6524 95.5855 0
M  V30 592 H 207.2433 215.5430 99.4698 0
M  V30 593 H 207.3230 214.2972 101.6064 0
M  V30 594 H 207.4359 211.8349 101.6087 0
M  V30 595 H 207.3506 211.8359 97.2957 0
M  V30 596 H 207.3933 213.8242 93.6625 0
M  V30 597 C 202.1720 207.4643 89.1688 0
M  V30 598 C 201.3374 206.8880 88.2450 0
M  V30 599 C 201.7329 206.8336 86.9293 0
M  V30 600 C 203.0387 207.2429 86.5792 0
M  V30 601 C 203.8601 207.6757 87.6330 0
M  V30 602 C 203.4233 207.8572 88.8866 0
M  V30 603 C 201.6441 207.6566 90.3913 0
M  V30 604 C 200.8822 207.6919 91.2551 0
M  V30 605 C 200.0601 207.7435 92.3271 0
M  V30 606 C 198.6775 207.7711 92.1856 0
M  V30 607 C 197.8948 207.7288 93.3364 0
M  V30 608 N 196.4877 207.7726 93.2495 0
M  V30 609 C 198.5193 207.6468 94.5870 0
M  V30 610 C 199.9066 207.6208 94.6789 0
M  V30 611 C 200.5344 207.5745 95.9349 0
M  V30 612 C 201.1570 207.5455 96.9450 0
M  V30 613 C 201.8257 207.5007 98.1862 0
M  V30 614 C 201.1053 207.4781 99.3864 0
M  V30 615 C 201.7947 207.5143 100.5980 0
M  V30 616 C 203.1809 207.5754 100.6027 0
M  V30 617 C 203.8607 207.5920 99.4114 0
M  V30 618 C 203.2171 207.5446 98.1852 0
M  V30 619 C 200.6835 207.6718 93.5461 0
M  V30 620 H 200.3589 206.5302 88.5605 0
M  V30 621 H 201.0104 206.4688 86.2126 0
M  V30 622 H 203.3215 207.1559 85.5451 0
M  V30 623 H 204.0165 208.3277 89.7018 0
M  V30 624 H 198.2220 207.8192 91.1990 0
M  V30 625 H 197.9372 207.6151 95.4881 0
M  V30 626 H 200.0191 207.4485 99.3861 0
M  V30 627 H 201.2498 207.5128 101.5319 0
M  V30 628 H 203.7119 207.6255 101.5525 0
M  V30 629 H 203.7414 207.5712 97.2390 0
M  V30 630 H 201.7789 207.6399 93.5923 0
M  V30 631 C 208.3431 202.2315 89.3188 0
M  V30 632 C 208.9259 201.4035 88.3932 0
M  V30 633 C 208.9896 201.8084 87.0807 0
M  V30 634 C 208.5828 203.1166 86.7371 0
M  V30 635 C 208.1425 203.9305 87.7937 0
M  V30 636 C 207.9522 203.4847 89.0428 0
M  V30 637 C 208.1422 201.6948 90.5361 0
M  V30 638 C 208.1007 200.9267 91.3942 0
M  V30 639 C 208.0416 200.0970 92.4598 0
M  V30 640 C 208.0150 198.7155 92.3082 0
M  V30 641 C 208.0491 197.9245 93.4537 0
M  V30 642 N 208.0059 196.5181 93.3564 0
M  V30 643 C 208.1223 198.5400 94.7093 0
M  V30 644 C 208.1477 199.9266 94.8113 0
M  V30 645 C 208.1851 200.5454 96.0721 0
M  V30 646 C 208.2070 201.1607 97.0868 0
M  V30 647 C 208.2430 201.8205 98.3330 0
M  V30 648 C 208.2572 201.0916 99.5282 0
M  V30 649 C 208.2124 201.7723 100.7444 0
M  V30 650 C 208.1512 203.1584 100.7586 0
M  V30 651 C 208.1431 203.8467 99.5721 0
M  V30 652 C 208.1991 203.2120 98.3417 0
M  V30 653 C 208.1047 200.7117 93.6838 0
M  V30 654 H 209.2814 200.4226 88.7041 0
M  V30 655 H 209.3595 201.0910 86.3614 0
M  V30 656 H 208.6770 203.4069 85.7057 0
M  V30 657 H 207.4759 204.0721 89.8589 0
M  V30 658 H 207.9739 198.2670 91.3181 0
M  V30 659 H 208.1477 197.9514 95.6064 0
M  V30 660 H 208.2868 200.0053 99.5203 0
M  V30 661 H 208.2073 201.2207 101.6744 0
M  V30 662 H 208.0945 203.6826 101.7118 0
M  V30 663 H 208.1792 203.7430 97.3991 0
M  V30 664 H 208.1362 201.8066 93.7380 0
M  V30 665 C 192.9477 177.8762 93.5849 0
M  V30 666 C 191.5496 177.8863 93.5849 0
M  V30 667 C 190.8321 176.6777 93.5848 0
M  V30 668 C 192.9305 175.4522 93.5849 0
M  V30 669 C 193.6480 176.6608 93.5848 0
M  V30 670 C 191.5323 175.4623 93.5849 0
M  V30 671 H 193.4511 174.5025 93.5848 0
M  V30 672 H 190.9950 174.5217 93.5849 0
M  V30 673 H 193.4851 178.8169 93.5850 0
M  V30 674 H 191.0291 178.8360 93.5849 0
M  V30 675 C 195.1264 176.6693 93.5847 0
M  V30 676 C 189.3537 176.6693 93.5847 0
M  V30 677 H 195.6625 177.6133 93.5847 0
M  V30 678 H 188.8176 175.7253 93.5849 0
M  V30 679 C 175.4653 192.9448 93.5849 0
M  V30 680 C 175.4551 191.5467 93.5849 0
M  V30 681 C 176.6638 190.8292 93.5848 0
M  V30 682 C 177.8893 192.9276 93.5849 0
M  V30 683 C 176.6807 193.6451 93.5848 0
M  V30 684 C 177.8792 191.5294 93.5849 0
M  V30 685 H 178.8390 193.4481 93.5849 0
M  V30 686 H 178.8198 190.9921 93.5849 0
M  V30 687 H 174.5246 193.4822 93.5850 0
M  V30 688 H 174.5055 191.0261 93.5849 0
M  V30 689 C 176.6722 195.1235 93.5847 0
M  V30 690 C 176.6722 189.3507 93.5847 0
M  V30 691 H 175.7282 195.6596 93.5847 0
M  V30 692 H 177.6162 188.8146 93.5849 0
M  V30 693 C 192.9477 209.0118 93.5849 0
M  V30 694 C 191.5496 209.0220 93.5849 0
M  V30 695 C 190.8321 207.8134 93.5848 0
M  V30 696 C 192.9305 206.5879 93.5849 0
M  V30 697 C 193.6480 207.7964 93.5848 0
M  V30 698 C 191.5323 206.5980 93.5849 0
M  V30 699 H 193.4511 205.6382 93.5848 0
M  V30 700 H 190.9950 205.6573 93.5849 0
M  V30 701 H 193.4851 209.9526 93.5850 0
M  V30 702 H 191.0291 209.9717 93.5849 0
M  V30 703 C 195.1264 207.8050 93.5847 0
M  V30 704 C 189.3537 207.8050 93.5847 0
M  V30 705 H 195.6625 208.7490 93.5847 0
M  V30 706 H 188.8176 206.8609 93.5849 0
M  V30 707 C 175.4073 223.8850 93.5850 0
M  V30 708 C 175.3971 222.4868 93.5850 0
M  V30 709 C 176.6058 221.7693 93.5848 0
M  V30 710 C 177.8313 223.8677 93.5849 0
M  V30 711 C 176.6227 224.5853 93.5849 0
M  V30 712 C 177.8212 222.4695 93.5849 0
M  V30 713 H 178.7810 224.3883 93.5849 0
M  V30 714 H 178.7618 221.9322 93.5849 0
M  V30 715 H 174.4666 224.4223 93.5850 0
M  V30 716 H 174.4475 221.9663 93.5849 0
M  V30 717 C 176.6142 226.0636 93.5847 0
M  V30 718 O 177.6584 226.6968 93.5842 0
M  V30 719 C 176.6142 220.2909 93.5847 0
M  V30 720 H 175.6702 226.5997 93.5848 0
M  V30 721 H 177.5582 219.7548 93.5850 0
M  V30 722 C 223.8879 177.9342 93.5850 0
M  V30 723 C 222.4898 177.9443 93.5850 0
M  V30 724 C 221.7723 176.7357 93.5848 0
M  V30 725 C 223.8707 175.5102 93.5849 0
M  V30 726 C 224.5882 176.7188 93.5849 0
M  V30 727 C 222.4725 175.5203 93.5849 0
M  V30 728 H 224.3912 174.5605 93.5849 0
M  V30 729 H 221.9352 174.5797 93.5849 0
M  V30 730 H 224.4252 178.8749 93.5850 0
M  V30 731 H 221.9692 178.8940 93.5849 0
M  V30 732 C 226.0666 176.7273 93.5847 0
M  V30 733 O 226.6998 175.6831 93.5842 0
M  V30 734 C 220.2938 176.7273 93.5847 0
M  V30 735 H 226.6027 177.6713 93.5848 0
M  V30 736 H 219.7577 175.7833 93.5850 0
M  V30 737 C 206.6010 192.9448 93.5849 0
M  V30 738 C 206.5908 191.5467 93.5849 0
M  V30 739 C 207.7994 190.8292 93.5848 0
M  V30 740 C 209.0250 192.9276 93.5849 0
M  V30 741 C 207.8164 193.6451 93.5848 0
M  V30 742 C 209.0149 191.5294 93.5849 0
M  V30 743 H 209.9746 193.4481 93.5849 0
M  V30 744 H 209.9555 190.9921 93.5849 0
M  V30 745 H 205.6603 193.4822 93.5850 0
M  V30 746 H 205.6411 191.0261 93.5849 0
M  V30 747 C 207.8079 195.1235 93.5847 0
M  V30 748 C 207.8079 189.3507 93.5847 0
M  V30 749 H 206.8638 195.6596 93.5847 0
M  V30 750 H 208.7519 188.8146 93.5849 0
M  V30 751 C 223.8879 209.0699 93.5850 0
M  V30 752 C 222.4898 209.0800 93.5850 0
M  V30 753 C 221.7723 207.8714 93.5848 0
M  V30 754 C 223.8707 206.6459 93.5849 0
M  V30 755 C 224.5882 207.8544 93.5849 0
M  V30 756 C 222.4725 206.6560 93.5849 0
M  V30 757 H 224.3912 205.6962 93.5849 0
M  V30 758 H 221.9352 205.7153 93.5849 0
M  V30 759 H 224.4252 210.0106 93.5850 0
M  V30 760 H 221.9692 210.0297 93.5849 0
M  V30 761 C 226.0666 207.8630 93.5847 0
M  V30 762 O 226.6998 206.8187 93.5842 0
M  V30 763 C 220.2938 207.8630 93.5847 0
M  V30 764 H 226.6027 208.8070 93.5848 0
M  V30 765 H 219.7577 206.9189 93.5850 0
M  V30 766 C 206.5430 223.8850 93.5850 0
M  V30 767 C 206.5328 222.4868 93.5850 0
M  V30 768 C 207.7414 221.7693 93.5848 0
M  V30 769 C 208.9670 223.8677 93.5849 0
M  V30 770 C 207.7584 224.5853 93.5849 0
M  V30 771 C 208.9569 222.4695 93.5849 0
M  V30 772 H 209.9166 224.3883 93.5849 0
M  V30 773 H 209.8975 221.9322 93.5849 0
M  V30 774 H 205.6023 224.4223 93.5850 0
M  V30 775 H 205.5831 221.9663 93.5849 0
M  V30 776 C 207.7498 226.0636 93.5847 0
M  V30 777 O 208.7941 226.6968 93.5842 0
M  V30 778 C 207.7498 220.2909 93.5847 0
M  V30 779 H 206.8058 226.5997 93.5848 0
M  V30 780 H 208.6939 219.7548 93.5850 0
M  V30 END ATOM
M  V30 BEGIN BOND
M  V30 1 1 3 4
M  V30 2 2 3 5
M  V30 3 1 6 7
M  V30 4 2 6 8
M  V30 5 1 9 10
M  V30 6 2 9 11
M  V30 7 1 12 13
M  V30 8 2 12 14
M  V30 9 9 4 1
M  V30 10 9 5 2
M  V30 11 9 7 1
M  V30 12 9 8 2
M  V30 13 9 10 1
M  V30 14 9 11 2
M  V30 15 9 13 1
M  V30 16 9 14 2
M  V30 17 1 17 18
M  V30 18 2 17 19
M  V30 19 1 20 21
M  V30 20 2 20 22
M  V30 21 1 23 24
M  V30 22 2 23 25
M  V30 23 1 26 27
M  V30 24 2 26 28
M  V30 25 9 18 15
M  V30 26 9 19 16
M  V30 27 9 21 15
M  V30 28 9 22 16
M  V30 29 9 24 15
M  V30 30 9 25 16
M  V30 31 9 27 15
M  V30 32 9 28 16
M  V30 33 1 29 30
M  V30 34 2 29 34
M  V30 35 1 29 35
M  V30 36 2 30 31
M  V30 37 1 30 52
M  V30 38 1 31 32
M  V30 39 1 31 53
M  V30 40 2 32 33
M  V30 41 1 32 54
M  V30 42 1 33 34
M  V30 43 1 34 55
M  V30 44 3 35 36
M  V30 45 1 36 37
M  V30 46 2 37 38
M  V30 47 1 37 51
M  V30 48 1 38 39
M  V30 49 1 38 56
M  V30 50 1 39 40
M  V30 51 2 39 41
M  V30 52 1 41 42
M  V30 53 1 41 57
M  V30 54 1 42 43
M  V30 55 2 42 51
M  V30 56 3 43 44
M  V30 57 1 44 45
M  V30 58 1 45 46
M  V30 59 2 45 50
M  V30 60 2 46 47
M  V30 61 1 46 58
M  V30 62 1 47 48
M  V30 63 1 47 59
M  V30 64 2 48 49
M  V30 65 1 48 60
M  V30 66 1 49 50
M  V30 67 1 50 61
M  V30 68 1 51 62
M  V30 69 1 63 64
M  V30 70 2 63 68
M  V30 71 1 63 69
M  V30 72 2 64 65
M  V30 73 1 64 86
M  V30 74 1 65 66
M  V30 75 1 65 87
M  V30 76 2 66 67
M  V30 77 1 66 88
M  V30 78 1 67 68
M  V30 79 1 68 89
M  V30 80 3 69 70
M  V30 81 1 70 71
M  V30 82 2 71 72
M  V30 83 1 71 85
M  V30 84 1 72 73
M  V30 85 1 72 90
M  V30 86 1 73 74
M  V30 87 2 73 75
M  V30 88 1 75 76
M  V30 89 1 75 91
M  V30 90 1 76 77
M  V30 91 2 76 85
M  V30 92 3 77 78
M  V30 93 1 78 79
M  V30 94 1 79 80
M  V30 95 2 79 84
M  V30 96 2 80 81
M  V30 97 1 80 92
M  V30 98 1 81 82
M  V30 99 1 81 93
M  V30 100 2 82 83
M  V30 101 1 82 94
M  V30 102 1 83 84
M  V30 103 1 84 95
M  V30 104 1 85 96
M  V30 105 1 97 98
M  V30 106 2 97 102
M  V30 107 1 97 103
M  V30 108 2 98 99
M  V30 109 1 98 122
M  V30 110 1 99 100
M  V30 111 1 99 123
M  V30 112 2 100 101
M  V30 113 1 100 124
M  V30 114 1 101 102
M  V30 115 1 102 125
M  V30 116 3 103 104
M  V30 117 1 104 105
M  V30 118 2 105 106
M  V30 119 1 105 121
M  V30 120 1 106 107
M  V30 121 1 106 126
M  V30 122 1 107 108
M  V30 123 2 107 111
M  V30 124 1 108 109
M  V30 125 1 108 110
M  V30 126 1 111 112
M  V30 127 1 111 127
M  V30 128 1 112 113
M  V30 129 2 112 121
M  V30 130 3 113 114
M  V30 131 1 114 115
M  V30 132 1 115 116
M  V30 133 2 115 120
M  V30 134 2 116 117
M  V30 135 1 116 128
M  V30 136 1 117 118
M  V30 137 1 117 129
M  V30 138 2 118 119
M  V30 139 1 118 130
M  V30 140 1 119 120
M  V30 141 1 120 131
M  V30 142 1 121 132
M  V30 143 1 133 134
M  V30 144 2 133 138
M  V30 145 1 133 139
M  V30 146 2 134 135
M  V30 147 1 134 158
M  V30 148 1 135 136
M  V30 149 1 135 159
M  V30 150 2 136 137
M  V30 151 1 136 160
M  V30 152 1 137 138
M  V30 153 1 138 161
M  V30 154 3 139 140
M  V30 155 1 140 141
M  V30 156 2 141 142
M  V30 157 1 141 157
M  V30 158 1 142 143
M  V30 159 1 142 162
M  V30 160 1 143 144
M  V30 161 2 143 147
M  V30 162 1 144 145
M  V30 163 1 144 146
M  V30 164 1 147 148
M  V30 165 1 147 163
M  V30 166 1 148 149
M  V30 167 2 148 157
M  V30 168 3 149 150
M  V30 169 1 150 151
M  V30 170 1 151 152
M  V30 171 2 151 156
M  V30 172 2 152 153
M  V30 173 1 152 164
M  V30 174 1 153 154
M  V30 175 1 153 165
M  V30 176 2 154 155
M  V30 177 1 154 166
M  V30 178 1 155 156
M  V30 179 1 156 167
M  V30 180 1 157 168
M  V30 181 1 3 33
M  V30 182 1 6 67
M  V30 183 1 9 101
M  V30 184 1 12 137
M  V30 185 1 17 49
M  V30 186 1 26 83
M  V30 187 1 23 119
M  V30 188 1 20 155
M  V30 189 1 171 172
M  V30 190 2 171 173
M  V30 191 1 174 175
M  V30 192 2 174 176
M  V30 193 1 177 178
M  V30 194 2 177 179
M  V30 195 1 180 181
M  V30 196 2 180 182
M  V30 197 9 172 169
M  V30 198 9 173 170
M  V30 199 9 175 169
M  V30 200 9 176 170
M  V30 201 9 178 169
M  V30 202 9 179 170
M  V30 203 9 181 169
M  V30 204 9 182 170
M  V30 205 1 185 186
M  V30 206 2 185 187
M  V30 207 1 188 189
M  V30 208 2 188 190
M  V30 209 1 191 192
M  V30 210 2 191 193
M  V30 211 1 194 195
M  V30 212 2 194 196
M  V30 213 9 186 183
M  V30 214 9 187 184
M  V30 215 9 189 183
M  V30 216 9 190 184
M  V30 217 9 192 183
M  V30 218 9 193 184
M  V30 219 9 195 183
M  V30 220 9 196 184
M  V30 221 1 197 198
M  V30 222 2 197 202
M  V30 223 1 197 203
M  V30 224 2 198 199
M  V30 225 1 198 220
M  V30 226 1 199 200
M  V30 227 1 199 221
M  V30 228 2 200 201
M  V30 229 1 200 222
M  V30 230 1 201 202
M  V30 231 1 202 223
M  V30 232 3 203 204
M  V30 233 1 204 205
M  V30 234 2 205 206
M  V30 235 1 205 219
M  V30 236 1 206 207
M  V30 237 1 206 224
M  V30 238 1 207 208
M  V30 239 2 207 209
M  V30 240 1 209 210
M  V30 241 1 209 225
M  V30 242 1 210 211
M  V30 243 2 210 219
M  V30 244 3 211 212
M  V30 245 1 212 213
M  V30 246 1 213 214
M  V30 247 2 213 218
M  V30 248 2 214 215
M  V30 249 1 214 226
M  V30 250 1 215 216
M  V30 251 1 215 227
M  V30 252 2 216 217
M  V30 253 1 216 228
M  V30 254 1 217 218
M  V30 255 1 218 229
M  V30 256 1 219 230
M  V30 257 1 231 232
M  V30 258 2 231 236
M  V30 259 1 231 237
M  V30 260 2 232 233
M  V30 261 1 232 254
M  V30 262 1 233 234
M  V30 263 1 233 255
M  V30 264 2 234 235
M  V30 265 1 234 256
M  V30 266 1 235 236
M  V30 267 1 236 257
M  V30 268 3 237 238
M  V30 269 1 238 239
M  V30 270 2 239 240
M  V30 271 1 239 253
M  V30 272 1 240 241
M  V30 273 1 240 258
M  V30 274 1 241 242
M  V30 275 2 241 243
M  V30 276 1 243 244
M  V30 277 1 243 259
M  V30 278 1 244 245
M  V30 279 2 244 253
M  V30 280 3 245 246
M  V30 281 1 246 247
M  V30 282 1 247 248
M  V30 283 2 247 252
M  V30 284 2 248 249
M  V30 285 1 248 260
M  V30 286 1 249 250
M  V30 287 1 249 261
M  V30 288 2 250 251
M  V30 289 1 250 262
M  V30 290 1 251 252
M  V30 291 1 252 263
M  V30 292 1 253 264
M  V30 293 1 265 266
M  V30 294 2 265 270
M  V30 295 1 265 271
M  V30 296 2 266 267
M  V30 297 1 266 290
M  V30 298 1 267 268
M  V30 299 1 267 291
M  V30 300 2 268 269
M  V30 301 1 268 292
M  V30 302 1 269 270
M  V30 303 1 270 293
M  V30 304 3 271 272
M  V30 305 1 272 273
M  V30 306 2 273 274
M  V30 307 1 273 289
M  V30 308 1 274 275
M  V30 309 1 274 294
M  V30 310 1 275 276
M  V30 311 2 275 279
M  V30 312 1 276 277
M  V30 313 1 276 278
M  V30 314 1 279 280
M  V30 315 1 279 295
M  V30 316 1 280 281
M  V30 317 2 280 289
M  V30 318 3 281 282
M  V30 319 1 282 283
M  V30 320 1 283 284
M  V30 321 2 283 288
M  V30 322 2 284 285
M  V30 323 1 284 296
M  V30 324 1 285 286
M  V30 325 1 285 297
M  V30 326 2 286 287
M  V30 327 1 286 298
M  V30 328 1 287 288
M  V30 329 1 288 299
M  V30 330 1 289 300
M  V30 331 1 301 302
M  V30 332 2 301 306
M  V30 333 1 301 307
M  V30 334 2 302 303
M  V30 335 1 302 324
M  V30 336 1 303 304
M  V30 337 1 303 325
M  V30 338 2 304 305
M  V30 339 1 304 326
M  V30 340 1 305 306
M  V30 341 1 306 327
M  V30 342 3 307 308
M  V30 343 1 308 309
M  V30 344 2 309 310
M  V30 345 1 309 323
M  V30 346 1 310 311
M  V30 347 1 310 328
M  V30 348 1 311 312
M  V30 349 2 311 313
M  V30 350 1 313 314
M  V30 351 1 313 329
M  V30 352 1 314 315
M  V30 353 2 314 323
M  V30 354 3 315 316
M  V30 355 1 316 317
M  V30 356 1 317 318
M  V30 357 2 317 322
M  V30 358 2 318 319
M  V30 359 1 318 330
M  V30 360 1 319 320
M  V30 361 1 319 331
M  V30 362 2 320 321
M  V30 363 1 320 332
M  V30 364 1 321 322
M  V30 365 1 322 333
M  V30 366 1 323 334
M  V30 367 1 171 201
M  V30 368 1 174 235
M  V30 369 1 177 269
M  V30 370 1 180 305
M  V30 371 1 185 217
M  V30 372 1 194 251
M  V30 373 1 191 287
M  V30 374 1 188 321
M  V30 375 1 337 338
M  V30 376 2 337 339
M  V30 377 1 340 341
M  V30 378 2 340 342
M  V30 379 1 343 344
M  V30 380 2 343 345
M  V30 381 1 346 347
M  V30 382 2 346 348
M  V30 383 9 338 335
M  V30 384 9 339 336
M  V30 385 9 341 335
M  V30 386 9 342 336
M  V30 387 9 344 335
M  V30 388 9 345 336
M  V30 389 9 347 335
M  V30 390 9 348 336
M  V30 391 1 351 352
M  V30 392 2 351 353
M  V30 393 1 354 355
M  V30 394 2 354 356
M  V30 395 1 357 358
M  V30 396 2 357 359
M  V30 397 1 360 361
M  V30 398 2 360 362
M  V30 399 9 352 349
M  V30 400 9 353 350
M  V30 401 9 355 349
M  V30 402 9 356 350
M  V30 403 9 358 349
M  V30 404 9 359 350
M  V30 405 9 361 349
M  V30 406 9 362 350
M  V30 407 1 363 364
M  V30 408 2 363 368
M  V30 409 1 363 369
M  V30 410 2 364 365
M  V30 411 1 364 386
M  V30 412 1 365 366
M  V30 413 1 365 387
M  V30 414 2 366 367
M  V30 415 1 366 388
M  V30 416 1 367 368
M  V30 417 1 368 389
M  V30 418 3 369 370
M  V30 419 1 370 371
M  V30 420 2 371 372
M  V30 421 1 371 385
M  V30 422 1 372 373
M  V30 423 1 372 390
M  V30 424 1 373 374
M  V30 425 2 373 375
M  V30 426 1 375 376
M  V30 427 1 375 391
M  V30 428 1 376 377
M  V30 429 2 376 385
M  V30 430 3 377 378
M  V30 431 1 378 379
M  V30 432 1 379 380
M  V30 433 2 379 384
M  V30 434 2 380 381
M  V30 435 1 380 392
M  V30 436 1 381 382
M  V30 437 1 381 393
M  V30 438 2 382 383
M  V30 439 1 382 394
M  V30 440 1 383 384
M  V30 441 1 384 395
M  V30 442 1 385 396
M  V30 443 1 397 398
M  V30 444 2 397 402
M  V30 445 1 397 403
M  V30 446 2 398 399
M  V30 447 1 398 420
M  V30 448 1 399 400
M  V30 449 1 399 421
M  V30 450 2 400 401
M  V30 451 1 400 422
M  V30 452 1 401 402
M  V30 453 1 402 423
M  V30 454 3 403 404
M  V30 455 1 404 405
M  V30 456 2 405 406
M  V30 457 1 405 419
M  V30 458 1 406 407
M  V30 459 1 406 424
M  V30 460 1 407 408
M  V30 461 2 407 409
M  V30 462 1 409 410
M  V30 463 1 409 425
M  V30 464 1 410 411
M  V30 465 2 410 419
M  V30 466 3 411 412
M  V30 467 1 412 413
M  V30 468 1 413 414
M  V30 469 2 413 418
M  V30 470 2 414 415
M  V30 471 1 414 426
M  V30 472 1 415 416
M  V30 473 1 415 427
M  V30 474 2 416 417
M  V30 475 1 416 428
M  V30 476 1 417 418
M  V30 477 1 418 429
M  V30 478 1 419 430
M  V30 479 1 431 432
M  V30 480 2 431 436
M  V30 481 1 431 437
M  V30 482 2 432 433
M  V30 483 1 432 454
M  V30 484 1 433 434
M  V30 485 1 433 455
M  V30 486 2 434 435
M  V30 487 1 434 456
M  V30 488 1 435 436
M  V30 489 1 436 457
M  V30 490 3 437 438
M  V30 491 1 438 439
M  V30 492 2 439 440
M  V30 493 1 439 453
M  V30 494 1 440 441
M  V30 495 1 440 458
M  V30 496 1 441 442
M  V30 497 2 441 443
M  V30 498 1 443 444
M  V30 499 1 443 459
M  V30 500 1 444 445
M  V30 501 2 444 453
M  V30 502 3 445 446
M  V30 503 1 446 447
M  V30 504 1 447 448
M  V30 505 2 447 452
M  V30 506 2 448 449
M  V30 507 1 448 460
M  V30 508 1 449 450
M  V30 509 1 449 461
M  V30 510 2 450 451
M  V30 511 1 450 462
M  V30 512 1 451 452
M  V30 513 1 452 463
M  V30 514 1 453 464
M  V30 515 1 465 466
M  V30 516 2 465 470
M  V30 517 1 465 471
M  V30 518 2 466 467
M  V30 519 1 466 490
M  V30 520 1 467 468
M  V30 521 1 467 491
M  V30 522 2 468 469
M  V30 523 1 468 492
M  V30 524 1 469 470
M  V30 525 1 470 493
M  V30 526 3 471 472
M  V30 527 1 472 473
M  V30 528 2 473 474
M  V30 529 1 473 489
M  V30 530 1 474 475
M  V30 531 1 474 494
M  V30 532 1 475 476
M  V30 533 2 475 479
M  V30 534 1 476 477
M  V30 535 1 476 478
M  V30 536 1 479 480
M  V30 537 1 479 495
M  V30 538 1 480 481
M  V30 539 2 480 489
M  V30 540 3 481 482
M  V30 541 1 482 483
M  V30 542 1 483 484
M  V30 543 2 483 488
M  V30 544 2 484 485
M  V30 545 1 484 496
M  V30 546 1 485 486
M  V30 547 1 485 497
M  V30 548 2 486 487
M  V30 549 1 486 498
M  V30 550 1 487 488
M  V30 551 1 488 499
M  V30 552 1 489 500
M  V30 553 1 337 367
M  V30 554 1 340 401
M  V30 555 1 343 435
M  V30 556 1 346 469
M  V30 557 1 351 383
M  V30 558 1 360 417
M  V30 559 1 357 451
M  V30 560 1 354 487
M  V30 561 1 503 504
M  V30 562 2 503 505
M  V30 563 1 506 507
M  V30 564 2 506 508
M  V30 565 1 509 510
M  V30 566 2 509 511
M  V30 567 1 512 513
M  V30 568 2 512 514
M  V30 569 9 504 501
M  V30 570 9 505 502
M  V30 571 9 507 501
M  V30 572 9 508 502
M  V30 573 9 510 501
M  V30 574 9 511 502
M  V30 575 9 513 501
M  V30 576 9 514 502
M  V30 577 1 517 518
M  V30 578 2 517 519
M  V30 579 1 520 521
M  V30 580 2 520 522
M  V30 581 1 523 524
M  V30 582 2 523 525
M  V30 583 1 526 527
M  V30 584 2 526 528
M  V30 585 9 518 515
M  V30 586 9 519 516
M  V30 587 9 521 515
M  V30 588 9 522 516
M  V30 589 9 524 515
M  V30 590 9 525 516
M  V30 591 9 527 515
M  V30 592 9 528 516
M  V30 593 1 529 530
M  V30 594 2 529 534
M  V30 595 1 529 535
M  V30 596 2 530 531
M  V30 597 1 530 552
M  V30 598 1 531 532
M  V30 599 1 531 553
M  V30 600 2 532 533
M  V30 601 1 532 554
M  V30 602 1 533 534
M  V30 603 1 534 555
M  V30 604 3 535 536
M  V30 605 1 536 537
M  V30 606 2 537 538
M  V30 607 1 537 551
M  V30 608 1 538 539
M  V30 609 1 538 556
M  V30 610 1 539 540
M  V30 611 2 539 541
M  V30 612 1 541 542
M  V30 613 1 541 557
M  V30 614 1 542 543
M  V30 615 2 542 551
M  V30 616 3 543 544
M  V30 617 1 544 545
M  V30 618 1 545 546
M  V30 619 2 545 550
M  V30 620 2 546 547
M  V30 621 1 546 558
M  V30 622 1 547 548
M  V30 623 1 547 559
M  V30 624 2 548 549
M  V30 625 1 548 560
M  V30 626 1 549 550
M  V30 627 1 550 561
M  V30 628 1 551 562
M  V30 629 1 563 564
M  V30 630 2 563 568
M  V30 631 1 563 569
M  V30 632 2 564 565
M  V30 633 1 564 586
M  V30 634 1 565 566
M  V30 635 1 565 587
M  V30 636 2 566 567
M  V30 637 1 566 588
M  V30 638 1 567 568
M  V30 639 1 568 589
M  V30 640 3 569 570
M  V30 641 1 570 571
M  V30 642 2 571 572
M  V30 643 1 571 585
M  V30 644 1 572 573
M  V30 645 1 572 590
M  V30 646 1 573 574
M  V30 647 2 573 575
M  V30 648 1 575 576
M  V30 649 1 575 591
M  V30 650 1 576 577
M  V30 651 2 576 585
M  V30 652 3 577 578
M  V30 653 1 578 579
M  V30 654 1 579 580
M  V30 655 2 579 584
M  V30 656 2 580 581
M  V30 657 1 580 592
M  V30 658 1 581 582
M  V30 659 1 581 593
M  V30 660 2 582 583
M  V30 661 1 582 594
M  V30 662 1 583 584
M  V30 663 1 584 595
M  V30 664 1 585 596
M  V30 665 1 597 598
M  V30 666 2 597 602
M  V30 667 1 597 603
M  V30 668 2 598 599
M  V30 669 1 598 620
M  V30 670 1 599 600
M  V30 671 1 599 621
M  V30 672 2 600 601
M  V30 673 1 600 622
M  V30 674 1 601 602
M  V30 675 1 602 623
M  V30 676 3 603 604
M  V30 677 1 604 605
M  V30 678 2 605 606
M  V30 679 1 605 619
M  V30 680 1 606 607
M  V30 681 1 606 624
M  V30 682 1 607 608
M  V30 683 2 607 609
M  V30 684 1 609 610
M  V30 685 1 609 625
M  V30 686 1 610 611
M  V30 687 2 610 619
M  V30 688 3 611 612
M  V30 689 1 612 613
M  V30 690 1 613 614
M  V30 691 2 613 618
M  V30 692 2 614 615
M  V30 693 1 614 626
M  V30 694 1 615 616
M  V30 695 1 615 627
M  V30 696 2 616 617
M  V30 697 1 616 628
M  V30 698 1 617 618
M  V30 699 1 618 629
M  V30 700 1 619 630
M  V30 701 1 631 632
M  V30 702 2 631 636
M  V30 703 1 631 637
M  V30 704 2 632 633
M  V30 705 1 632 654
M  V30 706 1 633 634
M  V30 707 1 633 655
M  V30 708 2 634 635
M  V30 709 1 634 656
M  V30 710 1 635 636
M  V30 711 1 636 657
M  V30 712 3 637 638
M  V30 713 1 638 639
M  V30 714 2 639 640
M  V30 715 1 639 653
M  V30 716 1 640 641
M  V30 717 1 640 658
M  V30 718 1 641 642
M  V30 719 2 641 643
M  V30 720 1 643 644
M  V30 721 1 643 659
M  V30 722 1 644 645
M  V30 723 2 644 653
M  V30 724 3 645 646
M  V30 725 1 646 647
M  V30 726 1 647 648
M  V30 727 2 647 652
M  V30 728 2 648 649
M  V30 729 1 648 660
M  V30 730 1 649 650
M  V30 731 1 649 661
M  V30 732 2 650 651
M  V30 733 1 650 662
M  V30 734 1 651 652
M  V30 735 1 652 663
M  V30 736 1 653 664
M  V30 737 1 503 533
M  V30 738 1 506 567
M  V30 739 1 509 601
M  V30 740 1 512 635
M  V30 741 1 517 549
M  V30 742 1 526 583
M  V30 743 1 523 617
M  V30 744 1 520 651
M  V30 745 2 665 666
M  V30 746 1 665 669
M  V30 747 1 665 673
M  V30 748 1 666 667
M  V30 749 1 666 674
M  V30 750 1 667 676
M  V30 751 2 668 669
M  V30 752 1 668 670
M  V30 753 1 668 671
M  V30 754 1 669 675
M  V30 755 2 670 667
M  V30 756 1 670 672
M  V30 757 1 675 677
M  V30 758 1 676 678
M  V30 759 2 679 680
M  V30 760 1 679 683
M  V30 761 1 679 687
M  V30 762 1 680 681
M  V30 763 1 680 688
M  V30 764 1 681 690
M  V30 765 2 682 683
M  V30 766 1 682 684
M  V30 767 1 682 685
M  V30 768 1 683 689
M  V30 769 2 684 681
M  V30 770 1 684 686
M  V30 771 1 689 691
M  V30 772 1 690 692
M  V30 773 2 693 694
M  V30 774 1 693 697
M  V30 775 1 693 701
M  V30 776 1 694 695
M  V30 777 1 694 702
M  V30 778 1 695 704
M  V30 779 2 696 697
M  V30 780 1 696 698
M  V30 781 1 696 699
M  V30 782 1 697 703
M  V30 783 2 698 695
M  V30 784 1 698 700
M  V30 785 1 703 705
M  V30 786 1 704 706
M  V30 787 2 707 708
M  V30 788 1 707 711
M  V30 789 1 707 715
M  V30 790 1 708 709
M  V30 791 1 708 716
M  V30 792 1 709 719
M  V30 793 2 710 711
M  V30 794 1 710 712
M  V30 795 1 710 713
M  V30 796 1 711 717
M  V30 797 2 712 709
M  V30 798 1 712 714
M  V30 799 2 717 718
M  V30 800 1 717 720
M  V30 801 1 719 721
M  V30 802 2 722 723
M  V30 803 1 722 726
M  V30 804 1 722 730
M  V30 805 1 723 724
M  V30 806 1 723 731
M  V30 807 1 724 734
M  V30 808 2 725 726
M  V30 809 1 725 727
M  V30 810 1 725 728
M  V30 811 1 726 732
M  V30 812 2 727 724
M  V30 813 1 727 729
M  V30 814 2 732 733
M  V30 815 1 732 735
M  V30 816 1 734 736
M  V30 817 2 737 738
M  V30 818 1 737 741
M  V30 819 1 737 745
M  V30 820 1 738 739
M  V30 821 1 738 746
M  V30 822 1 739 748
M  V30 823 2 740 741
M  V30 824 1 740 742
M  V30 825 1 740 743
M  V30 826 1 741 747
M  V30 827 2 742 739
M  V30 828 1 742 744
M  V30 829 1 747 749
M  V30 830 1 748 750
M  V30 831 2 751 752
M  V30 832 1 751 755
M  V30 833 1 751 759
M  V30 834 1 752 753
M  V30 835 1 752 760
M  V30 836 1 753 763
M  V30 837 2 754 755
M  V30 838 1 754 756
M  V30 839 1 754 757
M  V30 840 1 755 761
M  V30 841 2 756 753
M  V30 842 1 756 758
M  V30 843 2 761 762
M  V30 844 1 761 764
M  V30 845 1 763 765
M  V30 846 2 766 767
M  V30 847 1 766 770
M  V30 848 1 766 774
M  V30 849 1 767 768
M  V30 850 1 767 775
M  V30 851 1 768 778
M  V30 852 2 769 770
M  V30 853 1 769 771
M  V30 854 1 769 772
M  V30 855 1 770 776
M  V30 856 2 771 768
M  V30 857 1 771 773
M  V30 858 2 776 777
M  V30 859 1 776 779
M  V30 860 1 778 780
M  V30 861 2 40 676
M  V30 862 2 442 675
M  V30 863 2 74 690
M  V30 864 2 312 689
M  V30 865 2 208 704
M  V30 866 2 608 703
M  V30 867 2 242 719
M  V30 868 2 374 734
M  V30 869 2 408 748
M  V30 870 2 642 747
M  V30 871 2 540 763
M  V30 872 2 574 778
M  V30 END BOND
M  V30 END CTAB
M  END

$$$$
