
     RDKit          3D

  0  0  0  0  0  0  0  0  0  0999 V3000
M  V30 BEGIN CTAB
M  V30 COUNTS 18 20 0 0 0
M  V30 BEGIN ATOM
M  V30 1 Cu -0.1327 1.1033 -0.3341 0 CHG=2
M  V30 2 Cu 0.1187 -1.3091 -0.2289 0 CHG=2
M  V30 3 Br 4.2602 -0.1137 -0.0188 0
M  V30 4 C 2.3523 -0.0594 -0.0188 0
M  V30 5 O 1.7150 1.1291 -0.0188 0
M  V30 6 O 1.7150 -1.1008 -0.0188 0
M  V30 7 Br 0.0127 -0.1377 3.9464 0
M  V30 8 C 0.0127 -0.0834 2.0385 0
M  V30 9 O 0.0127 1.1051 1.4012 0
M  V30 10 O 0.0127 -1.1247 1.4012 0
M  V30 11 Br -4.0116 -0.1369 -0.0208 0
M  V30 12 C -2.1037 -0.0826 -0.0208 0
M  V30 13 O -1.4664 1.1059 -0.0208 0
M  V30 14 O -1.4664 -1.1239 -0.0208 0
M  V30 15 Br 0.0065 -0.1330 -4.3702 0
M  V30 16 C 0.0065 -0.0787 -2.4623 0
M  V30 17 O 0.0065 1.1098 -1.8250 0
M  V30 18 O 0.0065 -1.1201 -1.8250 0
M  V30 END ATOM
M  V30 BEGIN BOND
M  V30 1 1 3 4
M  V30 2 1 4 5
M  V30 3 2 4 6
M  V30 4 1 7 8
M  V30 5 1 8 9
M  V30 6 2 8 10
M  V30 7 1 11 12
M  V30 8 1 12 13
M  V30 9 2 12 14
M  V30 10 1 15 16
M  V30 11 1 16 17
M  V30 12 2 16 18
M  V30 13 9 5 1
M  V30 14 9 6 2
M  V30 15 9 9 1
M  V30 16 9 10 2
M  V30 17 9 13 1
M  V30 18 9 14 2
M  V30 19 9 17 1
M  V30 20 9 18 2
M  V30 END BOND
M  V30 END CTAB
M  END

$$$$
