
     RDKit          3D

  0  0  0  0  0  0  0  0  0  0999 V3000
M  V30 BEGIN CTAB
M  V30 COUNTS 139 147 0 0 0
M  V30 BEGIN ATOM
M  V30 1 N 7.3861 -4.5524 -2.0995 0
M  V30 2 C 7.3051 -5.7494 -1.4581 0
M  V30 3 C 8.4460 -6.2775 -0.8252 0
M  V30 4 C 9.6269 -5.5520 -0.8436 0
M  V30 5 C 9.6881 -4.3133 -1.4976 0
M  V30 6 C 8.5425 -3.8424 -2.1473 0
M  V30 7 C 10.8716 -3.5068 -1.3961 0
M  V30 8 C 11.8226 -2.7927 -1.2131 0
M  V30 9 H 8.5399 -2.8778 -2.6330 0
M  V30 10 H 6.3696 -6.3020 -1.4346 0
M  V30 11 H 8.3884 -7.2339 -0.3527 0
M  V30 12 H 10.4970 -5.9524 -0.3367 0
M  V30 13 N 10.6766 5.4300 1.1706 0
M  V30 14 C 11.4888 6.3928 1.6660 0
M  V30 15 C 12.8234 6.1040 1.9661 0
M  V30 16 C 13.3224 4.8139 1.7125 0
M  V30 17 C 12.4821 3.8388 1.1758 0
M  V30 18 C 11.1403 4.1637 0.9230 0
M  V30 19 C 12.9693 2.5291 0.8789 0
M  V30 20 C 13.3636 1.4174 0.5959 0
M  V30 21 H 10.4614 3.4192 0.5202 0
M  V30 22 H 11.1084 7.4114 1.7888 0
M  V30 23 H 13.5016 6.8779 2.3165 0
M  V30 24 H 14.3443 4.5869 1.9531 0
M  V30 25 C 15.3534 -1.4876 -0.7440 0
M  V30 26 C 14.2624 -2.3234 -1.1372 0
M  V30 27 C 12.9341 -1.9261 -0.8823 0
M  V30 28 C 12.6943 -0.7886 -0.1427 0
M  V30 29 C 13.7378 0.0833 0.1799 0
M  V30 30 C 15.0565 -0.2513 -0.1286 0
M  V30 31 H 15.8714 0.3945 0.1386 0
M  V30 32 H 14.4577 -3.2949 -1.6505 0
M  V30 33 H 11.6637 -0.4961 0.0924 0
M  V30 34 C 16.7436 -2.1244 -0.6996 0
M  V30 35 O 16.7926 -3.3709 -0.8524 0
M  V30 36 N 17.7391 -1.4921 0.1353 0
M  V30 37 C 19.1006 -1.2490 -0.3689 0
M  V30 38 C 20.0879 -1.1787 0.7664 0
M  V30 39 H 19.4167 -2.0594 -1.0615 0
M  V30 40 H 19.0810 -0.2622 -0.8578 0
M  V30 41 O 19.7786 -1.6362 1.8997 0
M  V30 42 N 21.3531 -0.5005 0.6187 0
M  V30 43 H 17.4533 -1.0441 1.0526 0
M  V30 44 C 22.4535 -1.0577 -0.1875 0
M  V30 45 H 21.4848 0.4411 1.0595 0
M  V30 46 H 22.4058 -2.1569 -0.1103 0
M  V30 47 H 22.3232 -0.7559 -1.2470 0
M  V30 48 C 23.8620 -0.6223 0.3556 0
M  V30 49 C 24.9820 -1.6046 0.0468 0
M  V30 50 C 24.3103 0.7548 -0.0966 0
M  V30 51 C 24.2601 1.1252 -1.4576 0
M  V30 52 C 24.8608 2.3146 -1.8956 0
M  V30 53 C 25.5212 3.1295 -0.9857 0
M  V30 54 C 25.5973 2.7721 0.3650 0
M  V30 55 C 25.0056 1.5866 0.8077 0
M  V30 56 H 25.1535 1.2704 1.8315 0
M  V30 57 H 23.8120 0.4914 -2.2117 0
M  V30 58 H 24.8354 2.5823 -2.9350 0
M  V30 59 H 26.0404 4.0128 -1.3312 0
M  V30 60 H 26.2017 3.3572 1.0319 0
M  V30 61 C 25.9210 -1.9147 1.0417 0
M  V30 62 C 27.0202 -2.7399 0.7610 0
M  V30 63 C 27.1801 -3.2859 -0.5029 0
M  V30 64 C 26.2541 -2.9655 -1.5089 0
M  V30 65 C 25.1796 -2.1276 -1.2479 0
M  V30 66 H 24.5133 -1.8602 -2.0597 0
M  V30 67 H 25.8237 -1.5135 2.0413 0
M  V30 68 H 27.7653 -2.9274 1.5277 0
M  V30 69 H 28.0509 -3.9023 -0.7166 0
M  V30 70 H 26.4189 -3.3346 -2.4989 0
M  V30 71 H 23.7603 -0.5976 1.4590 0
M  V30 72 C 21.3489 2.7149 -3.0499 0
M  V30 73 O 20.3656 2.7330 -2.2696 0
M  V30 74 C 22.5051 1.4523 -4.9054 0
M  V30 75 C 21.6423 1.4543 -3.7982 0
M  V30 76 C 22.7775 0.2565 -5.5775 0
M  V30 77 C 22.2017 -0.9486 -5.1491 0
M  V30 78 C 21.0500 0.2383 -3.3823 0
M  V30 79 C 21.3284 -0.9785 -4.0490 0
M  V30 80 H 22.9749 2.3307 -5.2635 0
M  V30 81 H 23.4579 0.2569 -6.4154 0
M  V30 82 H 20.4272 0.2256 -2.5125 0
M  V30 83 C 20.7617 -2.2778 -3.6311 0
M  V30 84 O 19.6925 -2.6788 -4.1501 0
M  V30 85 H 22.4515 -1.8457 -5.6795 0
M  V30 86 C 23.0270 -1.8186 3.7656 0
M  V30 87 O 21.8281 -1.8975 3.4384 0
M  V30 88 C 24.7512 -0.3273 4.9063 0
M  V30 89 C 23.5585 -0.4678 4.1834 0
M  V30 90 C 25.2441 0.9445 5.1885 0
M  V30 91 C 24.6186 2.0922 4.6968 0
M  V30 92 C 22.8749 0.7094 3.7788 0
M  V30 93 C 23.4438 1.9971 3.9446 0
M  V30 94 H 25.2864 -1.2003 5.2635 0
M  V30 95 H 26.1516 1.0238 5.7807 0
M  V30 96 H 21.9213 0.6039 3.2539 0
M  V30 97 C 22.7859 3.1782 3.3091 0
M  V30 98 O 21.7756 2.9914 2.5796 0
M  V30 99 H 25.0882 3.0393 4.9201 0
M  V30 100 N 23.2933 4.5219 3.4428 0
M  V30 101 C 22.3189 5.6506 1.4804 0
M  V30 102 C 23.4014 5.5431 0.5926 0
M  V30 103 C 21.0082 5.7397 0.9495 0
M  V30 104 C 20.7886 5.6334 -0.4270 0
M  V30 105 H 20.1577 5.8897 1.6062 0
M  V30 106 C 21.8772 5.4363 -1.2940 0
M  V30 107 H 19.7673 5.6706 -0.8164 0
M  V30 108 C 23.1793 5.4528 -0.7920 0
M  V30 109 H 24.4079 5.5367 0.9698 0
M  V30 110 H 24.0210 5.3932 -1.4723 0
M  V30 111 C 22.5446 5.7049 2.9695 0
M  V30 112 H 23.1124 6.6348 3.2238 0
M  V30 113 H 21.5665 5.7703 3.5105 0
M  V30 114 C 21.6381 5.2410 -2.7794 0
M  V30 115 N 22.1203 3.9159 -3.2349 0
M  V30 116 H 22.1656 6.0419 -3.3401 0
M  V30 117 H 20.5724 5.3367 -3.0411 0
M  V30 118 H 23.0276 3.8883 -3.7676 0
M  V30 119 H 24.0443 4.7315 4.1290 0
M  V30 120 N 21.4699 -3.1076 -2.6971 0
M  V30 121 C 21.5415 -4.5667 -0.7400 0
M  V30 122 C 22.9270 -4.7324 -0.6075 0
M  V30 123 C 20.7436 -4.4979 0.4165 0
M  V30 124 C 21.3514 -4.4475 1.6792 0
M  V30 125 H 19.6645 -4.4498 0.3331 0
M  V30 126 C 22.7578 -4.4139 1.8029 0
M  V30 127 H 20.7192 -4.3805 2.5513 0
M  V30 128 C 23.5270 -4.6340 0.6519 0
M  V30 129 H 23.5568 -4.8506 -1.4963 0
M  V30 130 H 24.6034 -4.6914 0.7446 0
M  V30 131 C 20.9444 -4.3540 -2.1195 0
M  V30 132 H 21.1558 -5.1985 -2.7925 0
M  V30 133 H 19.8393 -4.2959 -2.0350 0
M  V30 134 C 23.4198 -4.2980 3.1584 0
M  V30 135 N 23.9166 -2.9310 3.4559 0
M  V30 136 H 24.2624 -5.0056 3.2245 0
M  V30 137 H 22.6901 -4.5943 3.9496 0
M  V30 138 H 24.9321 -2.8272 3.6652 0
M  V30 139 H 22.3843 -2.7541 -2.3544 0
M  V30 END ATOM
M  V30 BEGIN BOND
M  V30 1 1 1 2
M  V30 2 2 2 3
M  V30 3 1 2 10
M  V30 4 1 3 4
M  V30 5 1 3 11
M  V30 6 2 4 5
M  V30 7 1 4 12
M  V30 8 1 5 6
M  V30 9 1 5 7
M  V30 10 2 6 1
M  V30 11 1 6 9
M  V30 12 3 7 8
M  V30 13 1 13 14
M  V30 14 2 14 15
M  V30 15 1 14 22
M  V30 16 1 15 16
M  V30 17 1 15 23
M  V30 18 2 16 17
M  V30 19 1 16 24
M  V30 20 1 17 18
M  V30 21 1 17 19
M  V30 22 2 18 13
M  V30 23 1 18 21
M  V30 24 3 19 20
M  V30 25 1 25 26
M  V30 26 2 26 27
M  V30 27 1 26 32
M  V30 28 1 27 28
M  V30 29 2 28 29
M  V30 30 1 28 33
M  V30 31 1 29 30
M  V30 32 2 30 25
M  V30 33 1 30 31
M  V30 34 1 8 27
M  V30 35 1 20 29
M  V30 36 2 34 35
M  V30 37 1 34 36
M  V30 38 1 36 37
M  V30 39 1 36 43
M  V30 40 1 37 38
M  V30 41 1 37 39
M  V30 42 1 37 40
M  V30 43 2 38 41
M  V30 44 1 38 42
M  V30 45 1 42 44
M  V30 46 1 42 45
M  V30 47 1 44 46
M  V30 48 1 44 47
M  V30 49 1 48 49
M  V30 50 1 48 50
M  V30 51 1 48 71
M  V30 52 1 49 61
M  V30 53 1 50 51
M  V30 54 2 51 52
M  V30 55 1 51 57
M  V30 56 1 52 53
M  V30 57 1 52 58
M  V30 58 2 53 54
M  V30 59 1 53 59
M  V30 60 1 54 55
M  V30 61 1 54 60
M  V30 62 2 55 50
M  V30 63 1 55 56
M  V30 64 2 61 62
M  V30 65 1 61 67
M  V30 66 1 62 63
M  V30 67 1 62 68
M  V30 68 2 63 64
M  V30 69 1 63 69
M  V30 70 1 64 65
M  V30 71 1 64 70
M  V30 72 2 65 49
M  V30 73 1 65 66
M  V30 74 1 44 48
M  V30 75 2 72 73
M  V30 76 1 72 75
M  V30 77 1 74 75
M  V30 78 2 74 76
M  V30 79 1 74 80
M  V30 80 2 75 78
M  V30 81 1 76 77
M  V30 82 1 76 81
M  V30 83 1 77 85
M  V30 84 1 78 79
M  V30 85 1 78 82
M  V30 86 2 79 77
M  V30 87 2 83 84
M  V30 88 1 83 79
M  V30 89 2 86 87
M  V30 90 1 86 89
M  V30 91 1 88 89
M  V30 92 2 88 90
M  V30 93 1 88 94
M  V30 94 2 89 92
M  V30 95 1 90 91
M  V30 96 1 90 95
M  V30 97 1 91 99
M  V30 98 1 92 93
M  V30 99 1 92 96
M  V30 100 2 93 91
M  V30 101 2 97 98
M  V30 102 1 97 93
M  V30 103 1 100 111
M  V30 104 1 100 119
M  V30 105 2 101 102
M  V30 106 1 101 103
M  V30 107 1 102 109
M  V30 108 2 103 104
M  V30 109 1 103 105
M  V30 110 1 104 106
M  V30 111 1 104 107
M  V30 112 2 106 108
M  V30 113 1 106 114
M  V30 114 1 108 102
M  V30 115 1 108 110
M  V30 116 1 111 101
M  V30 117 1 111 112
M  V30 118 1 111 113
M  V30 119 1 114 115
M  V30 120 1 114 116
M  V30 121 1 114 117
M  V30 122 1 115 118
M  V30 123 1 120 131
M  V30 124 1 120 139
M  V30 125 2 121 122
M  V30 126 1 121 123
M  V30 127 1 122 129
M  V30 128 2 123 124
M  V30 129 1 123 125
M  V30 130 1 124 126
M  V30 131 1 124 127
M  V30 132 2 126 128
M  V30 133 1 126 134
M  V30 134 1 128 122
M  V30 135 1 128 130
M  V30 136 1 131 121
M  V30 137 1 131 132
M  V30 138 1 131 133
M  V30 139 1 134 135
M  V30 140 1 134 136
M  V30 141 1 134 137
M  V30 142 1 135 138
M  V30 143 1 72 115
M  V30 144 1 97 100
M  V30 145 1 86 135
M  V30 146 1 83 120
M  V30 147 1 25 34
M  V30 END BOND
M  V30 END CTAB
M  END

$$$$
