
     RDKit          3D

  0  0  0  0  0  0  0  0  0  0999 V3000
M  V30 BEGIN CTAB
M  V30 COUNTS 34 36 0 0 0
M  V30 BEGIN ATOM
M  V30 1 N -4.5533 -1.4649 -0.0001 0
M  V30 2 C -5.3989 -0.4023 -0.0000 0
M  V30 3 C -4.8894 0.8993 -0.0001 0
M  V30 4 C -3.5003 1.0969 0.0000 0
M  V30 5 C -2.6458 -0.0206 -0.0000 0
M  V30 6 C -3.2051 -1.3011 -0.0000 0
M  V30 7 C -1.2052 0.0864 0.0002 0
M  V30 8 C 0.0000 0.0000 0.0000 0
M  V30 9 H -2.5616 -2.1713 0.0000 0
M  V30 10 H -6.4679 -0.5711 -0.0000 0
M  V30 11 H -5.5710 1.7416 -0.0000 0
M  V30 12 H -3.1065 2.1070 0.0000 0
M  V30 13 N 22.8009 1.4649 0.0014 0
M  V30 14 C 23.6465 0.4023 0.0004 0
M  V30 15 C 23.1370 -0.8993 -0.0010 0
M  V30 16 C 21.7479 -1.0969 -0.0011 0
M  V30 17 C 20.8934 0.0206 -0.0000 0
M  V30 18 C 21.4527 1.3011 0.0013 0
M  V30 19 C 19.4528 -0.0864 0.0002 0
M  V30 20 C 18.2476 0.0000 0.0000 0
M  V30 21 H 20.8092 2.1713 0.0022 0
M  V30 22 H 24.7154 0.5711 0.0005 0
M  V30 23 H 23.8186 -1.7416 -0.0018 0
M  V30 24 H 21.3541 -2.1070 -0.0021 0
M  V30 25 C 9.1238 -2.0995 0.0004 0
M  V30 26 C 7.9121 -1.3994 0.0002 0
M  V30 27 C 7.9115 -0.0000 -0.0000 0
M  V30 28 C 9.1239 0.6996 -0.0001 0
M  V30 29 C 10.3361 -0.0000 -0.0000 0
M  V30 30 C 10.3355 -1.3995 0.0003 0
M  V30 31 H 11.2726 -1.9410 0.0005 0
M  V30 32 H 6.9749 -1.9410 0.0003 0
M  V30 33 H 9.1238 1.7821 -0.0004 0
M  V30 34 I 9.1237 -4.2084 0.0008 0
M  V30 END ATOM
M  V30 BEGIN BOND
M  V30 1 1 1 2
M  V30 2 2 2 3
M  V30 3 1 2 10
M  V30 4 1 3 4
M  V30 5 1 3 11
M  V30 6 2 4 5
M  V30 7 1 4 12
M  V30 8 1 5 6
M  V30 9 1 5 7
M  V30 10 2 6 1
M  V30 11 1 6 9
M  V30 12 3 7 8
M  V30 13 1 13 14
M  V30 14 2 14 15
M  V30 15 1 14 22
M  V30 16 1 15 16
M  V30 17 1 15 23
M  V30 18 2 16 17
M  V30 19 1 16 24
M  V30 20 1 17 18
M  V30 21 1 17 19
M  V30 22 2 18 13
M  V30 23 1 18 21
M  V30 24 3 19 20
M  V30 25 1 25 26
M  V30 26 1 25 34
M  V30 27 2 26 27
M  V30 28 1 26 32
M  V30 29 1 27 28
M  V30 30 2 28 29
M  V30 31 1 28 33
M  V30 32 1 29 30
M  V30 33 2 30 25
M  V30 34 1 30 31
M  V30 35 1 8 27
M  V30 36 1 20 29
M  V30 END BOND
M  V30 END CTAB
M  END

$$$$
