
     RDKit          3D

  0  0  0  0  0  0  0  0  0  0999 V3000
M  V30 BEGIN CTAB
M  V30 COUNTS 34 36 0 0 0
M  V30 BEGIN ATOM
M  V30 1 N -5.8394 2.7312 -0.6176 0
M  V30 2 C -7.0449 2.1577 -0.5175 0
M  V30 3 C -7.0991 0.7857 -0.3102 0
M  V30 4 C -5.9383 0.0372 -0.2106 0
M  V30 5 C -4.7045 0.6470 -0.3164 0
M  V30 6 C -4.7201 2.0216 -0.5234 0
M  V30 7 C -3.4848 -0.1037 -0.2171 0
M  V30 8 C -2.4493 -0.7171 -0.1367 0
M  V30 9 H -3.7759 2.5558 -0.6145 0
M  V30 10 H -7.9702 2.7258 -0.5927 0
M  V30 11 H -8.0548 0.2845 -0.2239 0
M  V30 12 H -6.0073 -1.0162 -0.0511 0
M  V30 13 N 6.0840 2.4593 -0.6439 0
M  V30 14 C 7.1035 2.0789 0.1318 0
M  V30 15 C 6.9853 0.9694 0.9285 0
M  V30 16 C 5.7865 0.2750 0.8937 0
M  V30 17 C 4.7407 0.6848 0.0828 0
M  V30 18 C 4.9088 1.8066 -0.6996 0
M  V30 19 C 3.4993 -0.0354 0.0477 0
M  V30 20 C 2.4604 -0.6492 0.0368 0
M  V30 21 H 4.0918 2.1110 -1.3210 0
M  V30 22 H 8.0513 2.6147 0.1695 0
M  V30 23 H 7.7657 0.6030 1.5802 0
M  V30 24 H 5.6849 -0.6016 1.5193 0
M  V30 25 C -0.0037 -3.4753 0.1471 0
M  V30 26 C -1.2052 -2.8038 0.0560 0
M  V30 27 C -1.1901 -1.4336 -0.0403 0
M  V30 28 C 0.0162 -0.7343 -0.0459 0
M  V30 29 C 1.2219 -1.3975 0.0448 0
M  V30 30 C 1.2032 -2.7726 0.1413 0
M  V30 31 H 2.1278 -3.2991 0.2121 0
M  V30 32 H -2.1695 -3.3027 0.0562 0
M  V30 33 H -0.0581 0.3522 -0.1254 0
M  V30 34 I -0.0160 -5.5596 0.2940 0
M  V30 END ATOM
M  V30 BEGIN BOND
M  V30 1 1 1 2
M  V30 2 2 2 3
M  V30 3 1 2 10
M  V30 4 1 3 4
M  V30 5 1 3 11
M  V30 6 2 4 5
M  V30 7 1 4 12
M  V30 8 1 5 6
M  V30 9 1 5 7
M  V30 10 2 6 1
M  V30 11 1 6 9
M  V30 12 3 7 8
M  V30 13 1 13 14
M  V30 14 2 14 15
M  V30 15 1 14 22
M  V30 16 1 15 16
M  V30 17 1 15 23
M  V30 18 2 16 17
M  V30 19 1 16 24
M  V30 20 1 17 18
M  V30 21 1 17 19
M  V30 22 2 18 13
M  V30 23 1 18 21
M  V30 24 3 19 20
M  V30 25 1 25 26
M  V30 26 1 25 34
M  V30 27 2 26 27
M  V30 28 1 26 32
M  V30 29 1 27 28
M  V30 30 2 28 29
M  V30 31 1 28 33
M  V30 32 1 29 30
M  V30 33 2 30 25
M  V30 34 1 30 31
M  V30 35 1 8 27
M  V30 36 1 20 29
M  V30 END BOND
M  V30 END CTAB
M  END

$$$$
